version 2
run General-0-20180407-18:02:03-12593
attr configname General
attr datetime 20180407-18:02:03
attr experiment General
attr inifile omnetpp.ini
attr iterationvars ""
attr iterationvarsf ""
attr measurement ""
attr network ClientServer
attr processid 12593
attr repetition 0
attr replication #0
attr resultdir results
attr runnumber 0
attr seedset 0
param *.configurator.dumpAddresses true
param *.configurator.dumpTopology true
param *.configurator.dumpLinks true
param *.configurator.dumpRoutes true
param *.*.networkLayer.arpType "\"GlobalARP\""
param *.*.routingTable.netmaskRoutes "\"\""
param *.area1AP.wlan[*].mgmt.ssid "\"area1lan3\""
param *.wifiClient[*].wlan[*].agent.default_ssid "\"area1lan3\""
param *.*.wlan[*].bitrate 54Mbps
param *.wifiClient[0].numPingApps 1
param *.wifiClient[0].pingApp[*].destAddr "\"client[7]\""

scalar ClientServer.client[0].lo0.lo droppedPkBitError:count 0
attr interpolationmode none
attr source dropPkBitError
attr title "packets dropped/bit error, count"
scalar ClientServer.client[0].lo0.lo droppedPkBitError:sum(packetBytes) 0
attr interpolationmode none
attr source dropPkBitError
attr title "packets dropped/bit error, sum(packetBytes)"
scalar ClientServer.client[0].lo0.lo rcvdPkFromHL:count 0
attr interpolationmode none
attr source packetReceivedFromUpper
attr title "packets received from higher layer, count"
scalar ClientServer.client[0].lo0.lo rcvdPkFromHL:sum(packetBytes) 0
attr interpolationmode none
attr source packetReceivedFromUpper
attr title "packets received from higher layer, sum(packetBytes)"
scalar ClientServer.client[0].lo0.lo passedUpPk:count 0
attr interpolationmode none
attr source packetSentToUpper
attr title "packets passed to higher layer, count"
scalar ClientServer.client[0].lo0.lo passedUpPk:sum(packetBytes) 0
attr interpolationmode none
attr source packetSentToUpper
attr title "packets passed to higher layer, sum(packetBytes)"
scalar ClientServer.client[0].eth[0].mac "simulated time" 0.142105233227
scalar ClientServer.client[0].eth[0].mac full-duplex 1
scalar ClientServer.client[0].eth[0].mac "frames/sec sent" 0
scalar ClientServer.client[0].eth[0].mac "frames/sec rcvd" 0
scalar ClientServer.client[0].eth[0].mac "bits/sec sent" 0
scalar ClientServer.client[0].eth[0].mac "bits/sec rcvd" 0
scalar ClientServer.client[0].eth[0].mac "rx channel idle (%)" 100
scalar ClientServer.client[0].eth[0].mac "rx channel utilization (%)" 0
scalar ClientServer.client[0].eth[0].mac droppedPkNotForUs:count 0
attr interpolationmode none
attr source dropPkNotForUs
attr title "packets dropped/not for us, count"
scalar ClientServer.client[0].eth[0].mac droppedPkNotForUs:sum(packetBytes) 0
attr interpolationmode none
attr source dropPkNotForUs
attr title "packets dropped/not for us, sum(packetBytes)"
scalar ClientServer.client[0].eth[0].mac droppedPkIfaceDown:count 0
attr interpolationmode none
attr source dropPkIfaceDown
attr title "packets dropped/interface down, count"
scalar ClientServer.client[0].eth[0].mac droppedPkIfaceDown:sum(packetBytes) 0
attr interpolationmode none
attr source dropPkIfaceDown
attr title "packets dropped/interface down, sum(packetBytes)"
scalar ClientServer.client[0].eth[0].mac droppedPkBitError:count 0
attr interpolationmode none
attr source dropPkBitError
attr title "packets dropped/bit error, count"
scalar ClientServer.client[0].eth[0].mac droppedPkBitError:sum(packetBytes) 0
attr interpolationmode none
attr source dropPkBitError
attr title "packets dropped/bit error, sum(packetBytes)"
scalar ClientServer.client[0].eth[0].mac rxPkFromHL:count 0
attr interpolationmode none
attr source rxPkFromHL
attr title "packet bytes from higher layer, count"
scalar ClientServer.client[0].eth[0].mac rxPkFromHL:sum(packetBytes) 0
attr interpolationmode none
attr source rxPkFromHL
attr title "packet bytes from higher layer, sum(packetBytes)"
scalar ClientServer.client[0].eth[0].mac rxPausePkUnits:count 0
attr interpolationmode none
attr title "pause units received, count"
scalar ClientServer.client[0].eth[0].mac rxPausePkUnits:sum 0
attr interpolationmode none
attr title "pause units received, sum"
scalar ClientServer.client[0].eth[0].mac txPausePkUnits:count 0
attr interpolationmode none
attr title "pause units sent, count"
scalar ClientServer.client[0].eth[0].mac txPausePkUnits:sum 0
attr interpolationmode none
attr title "pause units sent, sum"
scalar ClientServer.client[0].eth[0].mac rxPkOk:count 0
attr interpolationmode none
attr source rxPkOk
attr title "packets received OK, count"
scalar ClientServer.client[0].eth[0].mac rxPkOk:sum(packetBytes) 0
attr interpolationmode none
attr source rxPkOk
attr title "packets received OK, sum(packetBytes)"
scalar ClientServer.client[0].eth[0].mac txPk:count 0
attr interpolationmode none
attr source txPk
attr title "packets transmitted, count"
scalar ClientServer.client[0].eth[0].mac txPk:sum(packetBytes) 0
attr interpolationmode none
attr source txPk
attr title "packets transmitted, sum(packetBytes)"
scalar ClientServer.client[0].eth[0].mac passedUpPk:count 0
attr interpolationmode none
attr source packetSentToUpper
attr title "packets passed to higher layer, count"
scalar ClientServer.client[0].eth[0].mac passedUpPk:sum(packetBytes) 0
attr interpolationmode none
attr source packetSentToUpper
attr title "packets passed to higher layer, sum(packetBytes)"
scalar ClientServer.client[0].eth[0].encap pauseSent:count 0
attr title "pause sent, count"
scalar ClientServer.client[0].eth[0].encap pauseSent:sum 0
attr title "pause sent, sum"
scalar ClientServer.client[0].eth[0].encap decapPk:count 0
attr interpolationmode none
attr source decapPk
attr title "packets decapsulated, count"
scalar ClientServer.client[0].eth[0].encap decapPk:sum(packetBytes) 0
attr interpolationmode none
attr source decapPk
attr title "packets decapsulated, sum(packetBytes)"
scalar ClientServer.client[0].eth[0].encap encapPk:count 0
attr interpolationmode none
attr source encapPk
attr title "packets encapsulated, count"
scalar ClientServer.client[0].eth[0].encap encapPk:sum(packetBytes) 0
attr interpolationmode none
attr source encapPk
attr title "packets encapsulated, sum(packetBytes)"
scalar ClientServer.client[1].lo0.lo droppedPkBitError:count 0
attr interpolationmode none
attr source dropPkBitError
attr title "packets dropped/bit error, count"
scalar ClientServer.client[1].lo0.lo droppedPkBitError:sum(packetBytes) 0
attr interpolationmode none
attr source dropPkBitError
attr title "packets dropped/bit error, sum(packetBytes)"
scalar ClientServer.client[1].lo0.lo rcvdPkFromHL:count 0
attr interpolationmode none
attr source packetReceivedFromUpper
attr title "packets received from higher layer, count"
scalar ClientServer.client[1].lo0.lo rcvdPkFromHL:sum(packetBytes) 0
attr interpolationmode none
attr source packetReceivedFromUpper
attr title "packets received from higher layer, sum(packetBytes)"
scalar ClientServer.client[1].lo0.lo passedUpPk:count 0
attr interpolationmode none
attr source packetSentToUpper
attr title "packets passed to higher layer, count"
scalar ClientServer.client[1].lo0.lo passedUpPk:sum(packetBytes) 0
attr interpolationmode none
attr source packetSentToUpper
attr title "packets passed to higher layer, sum(packetBytes)"
scalar ClientServer.client[1].eth[0].mac "simulated time" 0.142105233227
scalar ClientServer.client[1].eth[0].mac full-duplex 1
scalar ClientServer.client[1].eth[0].mac "frames/sec sent" 0
scalar ClientServer.client[1].eth[0].mac "frames/sec rcvd" 0
scalar ClientServer.client[1].eth[0].mac "bits/sec sent" 0
scalar ClientServer.client[1].eth[0].mac "bits/sec rcvd" 0
scalar ClientServer.client[1].eth[0].mac "rx channel idle (%)" 100
scalar ClientServer.client[1].eth[0].mac "rx channel utilization (%)" 0
scalar ClientServer.client[1].eth[0].mac droppedPkNotForUs:count 0
attr interpolationmode none
attr source dropPkNotForUs
attr title "packets dropped/not for us, count"
scalar ClientServer.client[1].eth[0].mac droppedPkNotForUs:sum(packetBytes) 0
attr interpolationmode none
attr source dropPkNotForUs
attr title "packets dropped/not for us, sum(packetBytes)"
scalar ClientServer.client[1].eth[0].mac droppedPkIfaceDown:count 0
attr interpolationmode none
attr source dropPkIfaceDown
attr title "packets dropped/interface down, count"
scalar ClientServer.client[1].eth[0].mac droppedPkIfaceDown:sum(packetBytes) 0
attr interpolationmode none
attr source dropPkIfaceDown
attr title "packets dropped/interface down, sum(packetBytes)"
scalar ClientServer.client[1].eth[0].mac droppedPkBitError:count 0
attr interpolationmode none
attr source dropPkBitError
attr title "packets dropped/bit error, count"
scalar ClientServer.client[1].eth[0].mac droppedPkBitError:sum(packetBytes) 0
attr interpolationmode none
attr source dropPkBitError
attr title "packets dropped/bit error, sum(packetBytes)"
scalar ClientServer.client[1].eth[0].mac rxPkFromHL:count 0
attr interpolationmode none
attr source rxPkFromHL
attr title "packet bytes from higher layer, count"
scalar ClientServer.client[1].eth[0].mac rxPkFromHL:sum(packetBytes) 0
attr interpolationmode none
attr source rxPkFromHL
attr title "packet bytes from higher layer, sum(packetBytes)"
scalar ClientServer.client[1].eth[0].mac rxPausePkUnits:count 0
attr interpolationmode none
attr title "pause units received, count"
scalar ClientServer.client[1].eth[0].mac rxPausePkUnits:sum 0
attr interpolationmode none
attr title "pause units received, sum"
scalar ClientServer.client[1].eth[0].mac txPausePkUnits:count 0
attr interpolationmode none
attr title "pause units sent, count"
scalar ClientServer.client[1].eth[0].mac txPausePkUnits:sum 0
attr interpolationmode none
attr title "pause units sent, sum"
scalar ClientServer.client[1].eth[0].mac rxPkOk:count 0
attr interpolationmode none
attr source rxPkOk
attr title "packets received OK, count"
scalar ClientServer.client[1].eth[0].mac rxPkOk:sum(packetBytes) 0
attr interpolationmode none
attr source rxPkOk
attr title "packets received OK, sum(packetBytes)"
scalar ClientServer.client[1].eth[0].mac txPk:count 0
attr interpolationmode none
attr source txPk
attr title "packets transmitted, count"
scalar ClientServer.client[1].eth[0].mac txPk:sum(packetBytes) 0
attr interpolationmode none
attr source txPk
attr title "packets transmitted, sum(packetBytes)"
scalar ClientServer.client[1].eth[0].mac passedUpPk:count 0
attr interpolationmode none
attr source packetSentToUpper
attr title "packets passed to higher layer, count"
scalar ClientServer.client[1].eth[0].mac passedUpPk:sum(packetBytes) 0
attr interpolationmode none
attr source packetSentToUpper
attr title "packets passed to higher layer, sum(packetBytes)"
scalar ClientServer.client[1].eth[0].encap pauseSent:count 0
attr title "pause sent, count"
scalar ClientServer.client[1].eth[0].encap pauseSent:sum 0
attr title "pause sent, sum"
scalar ClientServer.client[1].eth[0].encap decapPk:count 0
attr interpolationmode none
attr source decapPk
attr title "packets decapsulated, count"
scalar ClientServer.client[1].eth[0].encap decapPk:sum(packetBytes) 0
attr interpolationmode none
attr source decapPk
attr title "packets decapsulated, sum(packetBytes)"
scalar ClientServer.client[1].eth[0].encap encapPk:count 0
attr interpolationmode none
attr source encapPk
attr title "packets encapsulated, count"
scalar ClientServer.client[1].eth[0].encap encapPk:sum(packetBytes) 0
attr interpolationmode none
attr source encapPk
attr title "packets encapsulated, sum(packetBytes)"
scalar ClientServer.client[2].lo0.lo droppedPkBitError:count 0
attr interpolationmode none
attr source dropPkBitError
attr title "packets dropped/bit error, count"
scalar ClientServer.client[2].lo0.lo droppedPkBitError:sum(packetBytes) 0
attr interpolationmode none
attr source dropPkBitError
attr title "packets dropped/bit error, sum(packetBytes)"
scalar ClientServer.client[2].lo0.lo rcvdPkFromHL:count 0
attr interpolationmode none
attr source packetReceivedFromUpper
attr title "packets received from higher layer, count"
scalar ClientServer.client[2].lo0.lo rcvdPkFromHL:sum(packetBytes) 0
attr interpolationmode none
attr source packetReceivedFromUpper
attr title "packets received from higher layer, sum(packetBytes)"
scalar ClientServer.client[2].lo0.lo passedUpPk:count 0
attr interpolationmode none
attr source packetSentToUpper
attr title "packets passed to higher layer, count"
scalar ClientServer.client[2].lo0.lo passedUpPk:sum(packetBytes) 0
attr interpolationmode none
attr source packetSentToUpper
attr title "packets passed to higher layer, sum(packetBytes)"
scalar ClientServer.client[2].eth[0].mac "simulated time" 0.142105233227
scalar ClientServer.client[2].eth[0].mac full-duplex 1
scalar ClientServer.client[2].eth[0].mac "frames/sec sent" 0
scalar ClientServer.client[2].eth[0].mac "frames/sec rcvd" 0
scalar ClientServer.client[2].eth[0].mac "bits/sec sent" 0
scalar ClientServer.client[2].eth[0].mac "bits/sec rcvd" 0
scalar ClientServer.client[2].eth[0].mac "rx channel idle (%)" 100
scalar ClientServer.client[2].eth[0].mac "rx channel utilization (%)" 0
scalar ClientServer.client[2].eth[0].mac droppedPkNotForUs:count 0
attr interpolationmode none
attr source dropPkNotForUs
attr title "packets dropped/not for us, count"
scalar ClientServer.client[2].eth[0].mac droppedPkNotForUs:sum(packetBytes) 0
attr interpolationmode none
attr source dropPkNotForUs
attr title "packets dropped/not for us, sum(packetBytes)"
scalar ClientServer.client[2].eth[0].mac droppedPkIfaceDown:count 0
attr interpolationmode none
attr source dropPkIfaceDown
attr title "packets dropped/interface down, count"
scalar ClientServer.client[2].eth[0].mac droppedPkIfaceDown:sum(packetBytes) 0
attr interpolationmode none
attr source dropPkIfaceDown
attr title "packets dropped/interface down, sum(packetBytes)"
scalar ClientServer.client[2].eth[0].mac droppedPkBitError:count 0
attr interpolationmode none
attr source dropPkBitError
attr title "packets dropped/bit error, count"
scalar ClientServer.client[2].eth[0].mac droppedPkBitError:sum(packetBytes) 0
attr interpolationmode none
attr source dropPkBitError
attr title "packets dropped/bit error, sum(packetBytes)"
scalar ClientServer.client[2].eth[0].mac rxPkFromHL:count 0
attr interpolationmode none
attr source rxPkFromHL
attr title "packet bytes from higher layer, count"
scalar ClientServer.client[2].eth[0].mac rxPkFromHL:sum(packetBytes) 0
attr interpolationmode none
attr source rxPkFromHL
attr title "packet bytes from higher layer, sum(packetBytes)"
scalar ClientServer.client[2].eth[0].mac rxPausePkUnits:count 0
attr interpolationmode none
attr title "pause units received, count"
scalar ClientServer.client[2].eth[0].mac rxPausePkUnits:sum 0
attr interpolationmode none
attr title "pause units received, sum"
scalar ClientServer.client[2].eth[0].mac txPausePkUnits:count 0
attr interpolationmode none
attr title "pause units sent, count"
scalar ClientServer.client[2].eth[0].mac txPausePkUnits:sum 0
attr interpolationmode none
attr title "pause units sent, sum"
scalar ClientServer.client[2].eth[0].mac rxPkOk:count 0
attr interpolationmode none
attr source rxPkOk
attr title "packets received OK, count"
scalar ClientServer.client[2].eth[0].mac rxPkOk:sum(packetBytes) 0
attr interpolationmode none
attr source rxPkOk
attr title "packets received OK, sum(packetBytes)"
scalar ClientServer.client[2].eth[0].mac txPk:count 0
attr interpolationmode none
attr source txPk
attr title "packets transmitted, count"
scalar ClientServer.client[2].eth[0].mac txPk:sum(packetBytes) 0
attr interpolationmode none
attr source txPk
attr title "packets transmitted, sum(packetBytes)"
scalar ClientServer.client[2].eth[0].mac passedUpPk:count 0
attr interpolationmode none
attr source packetSentToUpper
attr title "packets passed to higher layer, count"
scalar ClientServer.client[2].eth[0].mac passedUpPk:sum(packetBytes) 0
attr interpolationmode none
attr source packetSentToUpper
attr title "packets passed to higher layer, sum(packetBytes)"
scalar ClientServer.client[2].eth[0].encap pauseSent:count 0
attr title "pause sent, count"
scalar ClientServer.client[2].eth[0].encap pauseSent:sum 0
attr title "pause sent, sum"
scalar ClientServer.client[2].eth[0].encap decapPk:count 0
attr interpolationmode none
attr source decapPk
attr title "packets decapsulated, count"
scalar ClientServer.client[2].eth[0].encap decapPk:sum(packetBytes) 0
attr interpolationmode none
attr source decapPk
attr title "packets decapsulated, sum(packetBytes)"
scalar ClientServer.client[2].eth[0].encap encapPk:count 0
attr interpolationmode none
attr source encapPk
attr title "packets encapsulated, count"
scalar ClientServer.client[2].eth[0].encap encapPk:sum(packetBytes) 0
attr interpolationmode none
attr source encapPk
attr title "packets encapsulated, sum(packetBytes)"
scalar ClientServer.client[3].lo0.lo droppedPkBitError:count 0
attr interpolationmode none
attr source dropPkBitError
attr title "packets dropped/bit error, count"
scalar ClientServer.client[3].lo0.lo droppedPkBitError:sum(packetBytes) 0
attr interpolationmode none
attr source dropPkBitError
attr title "packets dropped/bit error, sum(packetBytes)"
scalar ClientServer.client[3].lo0.lo rcvdPkFromHL:count 0
attr interpolationmode none
attr source packetReceivedFromUpper
attr title "packets received from higher layer, count"
scalar ClientServer.client[3].lo0.lo rcvdPkFromHL:sum(packetBytes) 0
attr interpolationmode none
attr source packetReceivedFromUpper
attr title "packets received from higher layer, sum(packetBytes)"
scalar ClientServer.client[3].lo0.lo passedUpPk:count 0
attr interpolationmode none
attr source packetSentToUpper
attr title "packets passed to higher layer, count"
scalar ClientServer.client[3].lo0.lo passedUpPk:sum(packetBytes) 0
attr interpolationmode none
attr source packetSentToUpper
attr title "packets passed to higher layer, sum(packetBytes)"
scalar ClientServer.client[3].eth[0].mac "simulated time" 0.142105233227
scalar ClientServer.client[3].eth[0].mac full-duplex 1
scalar ClientServer.client[3].eth[0].mac "frames/sec sent" 0
scalar ClientServer.client[3].eth[0].mac "frames/sec rcvd" 0
scalar ClientServer.client[3].eth[0].mac "bits/sec sent" 0
scalar ClientServer.client[3].eth[0].mac "bits/sec rcvd" 0
scalar ClientServer.client[3].eth[0].mac "rx channel idle (%)" 100
scalar ClientServer.client[3].eth[0].mac "rx channel utilization (%)" 0
scalar ClientServer.client[3].eth[0].mac droppedPkNotForUs:count 0
attr interpolationmode none
attr source dropPkNotForUs
attr title "packets dropped/not for us, count"
scalar ClientServer.client[3].eth[0].mac droppedPkNotForUs:sum(packetBytes) 0
attr interpolationmode none
attr source dropPkNotForUs
attr title "packets dropped/not for us, sum(packetBytes)"
scalar ClientServer.client[3].eth[0].mac droppedPkIfaceDown:count 0
attr interpolationmode none
attr source dropPkIfaceDown
attr title "packets dropped/interface down, count"
scalar ClientServer.client[3].eth[0].mac droppedPkIfaceDown:sum(packetBytes) 0
attr interpolationmode none
attr source dropPkIfaceDown
attr title "packets dropped/interface down, sum(packetBytes)"
scalar ClientServer.client[3].eth[0].mac droppedPkBitError:count 0
attr interpolationmode none
attr source dropPkBitError
attr title "packets dropped/bit error, count"
scalar ClientServer.client[3].eth[0].mac droppedPkBitError:sum(packetBytes) 0
attr interpolationmode none
attr source dropPkBitError
attr title "packets dropped/bit error, sum(packetBytes)"
scalar ClientServer.client[3].eth[0].mac rxPkFromHL:count 0
attr interpolationmode none
attr source rxPkFromHL
attr title "packet bytes from higher layer, count"
scalar ClientServer.client[3].eth[0].mac rxPkFromHL:sum(packetBytes) 0
attr interpolationmode none
attr source rxPkFromHL
attr title "packet bytes from higher layer, sum(packetBytes)"
scalar ClientServer.client[3].eth[0].mac rxPausePkUnits:count 0
attr interpolationmode none
attr title "pause units received, count"
scalar ClientServer.client[3].eth[0].mac rxPausePkUnits:sum 0
attr interpolationmode none
attr title "pause units received, sum"
scalar ClientServer.client[3].eth[0].mac txPausePkUnits:count 0
attr interpolationmode none
attr title "pause units sent, count"
scalar ClientServer.client[3].eth[0].mac txPausePkUnits:sum 0
attr interpolationmode none
attr title "pause units sent, sum"
scalar ClientServer.client[3].eth[0].mac rxPkOk:count 0
attr interpolationmode none
attr source rxPkOk
attr title "packets received OK, count"
scalar ClientServer.client[3].eth[0].mac rxPkOk:sum(packetBytes) 0
attr interpolationmode none
attr source rxPkOk
attr title "packets received OK, sum(packetBytes)"
scalar ClientServer.client[3].eth[0].mac txPk:count 0
attr interpolationmode none
attr source txPk
attr title "packets transmitted, count"
scalar ClientServer.client[3].eth[0].mac txPk:sum(packetBytes) 0
attr interpolationmode none
attr source txPk
attr title "packets transmitted, sum(packetBytes)"
scalar ClientServer.client[3].eth[0].mac passedUpPk:count 0
attr interpolationmode none
attr source packetSentToUpper
attr title "packets passed to higher layer, count"
scalar ClientServer.client[3].eth[0].mac passedUpPk:sum(packetBytes) 0
attr interpolationmode none
attr source packetSentToUpper
attr title "packets passed to higher layer, sum(packetBytes)"
scalar ClientServer.client[3].eth[0].encap pauseSent:count 0
attr title "pause sent, count"
scalar ClientServer.client[3].eth[0].encap pauseSent:sum 0
attr title "pause sent, sum"
scalar ClientServer.client[3].eth[0].encap decapPk:count 0
attr interpolationmode none
attr source decapPk
attr title "packets decapsulated, count"
scalar ClientServer.client[3].eth[0].encap decapPk:sum(packetBytes) 0
attr interpolationmode none
attr source decapPk
attr title "packets decapsulated, sum(packetBytes)"
scalar ClientServer.client[3].eth[0].encap encapPk:count 0
attr interpolationmode none
attr source encapPk
attr title "packets encapsulated, count"
scalar ClientServer.client[3].eth[0].encap encapPk:sum(packetBytes) 0
attr interpolationmode none
attr source encapPk
attr title "packets encapsulated, sum(packetBytes)"
scalar ClientServer.client[4].lo0.lo droppedPkBitError:count 0
attr interpolationmode none
attr source dropPkBitError
attr title "packets dropped/bit error, count"
scalar ClientServer.client[4].lo0.lo droppedPkBitError:sum(packetBytes) 0
attr interpolationmode none
attr source dropPkBitError
attr title "packets dropped/bit error, sum(packetBytes)"
scalar ClientServer.client[4].lo0.lo rcvdPkFromHL:count 0
attr interpolationmode none
attr source packetReceivedFromUpper
attr title "packets received from higher layer, count"
scalar ClientServer.client[4].lo0.lo rcvdPkFromHL:sum(packetBytes) 0
attr interpolationmode none
attr source packetReceivedFromUpper
attr title "packets received from higher layer, sum(packetBytes)"
scalar ClientServer.client[4].lo0.lo passedUpPk:count 0
attr interpolationmode none
attr source packetSentToUpper
attr title "packets passed to higher layer, count"
scalar ClientServer.client[4].lo0.lo passedUpPk:sum(packetBytes) 0
attr interpolationmode none
attr source packetSentToUpper
attr title "packets passed to higher layer, sum(packetBytes)"
scalar ClientServer.client[4].eth[0].mac "simulated time" 0.142105233227
scalar ClientServer.client[4].eth[0].mac full-duplex 1
scalar ClientServer.client[4].eth[0].mac "frames/sec sent" 0
scalar ClientServer.client[4].eth[0].mac "frames/sec rcvd" 0
scalar ClientServer.client[4].eth[0].mac "bits/sec sent" 0
scalar ClientServer.client[4].eth[0].mac "bits/sec rcvd" 0
scalar ClientServer.client[4].eth[0].mac "rx channel idle (%)" 100
scalar ClientServer.client[4].eth[0].mac "rx channel utilization (%)" 0
scalar ClientServer.client[4].eth[0].mac droppedPkNotForUs:count 0
attr interpolationmode none
attr source dropPkNotForUs
attr title "packets dropped/not for us, count"
scalar ClientServer.client[4].eth[0].mac droppedPkNotForUs:sum(packetBytes) 0
attr interpolationmode none
attr source dropPkNotForUs
attr title "packets dropped/not for us, sum(packetBytes)"
scalar ClientServer.client[4].eth[0].mac droppedPkIfaceDown:count 0
attr interpolationmode none
attr source dropPkIfaceDown
attr title "packets dropped/interface down, count"
scalar ClientServer.client[4].eth[0].mac droppedPkIfaceDown:sum(packetBytes) 0
attr interpolationmode none
attr source dropPkIfaceDown
attr title "packets dropped/interface down, sum(packetBytes)"
scalar ClientServer.client[4].eth[0].mac droppedPkBitError:count 0
attr interpolationmode none
attr source dropPkBitError
attr title "packets dropped/bit error, count"
scalar ClientServer.client[4].eth[0].mac droppedPkBitError:sum(packetBytes) 0
attr interpolationmode none
attr source dropPkBitError
attr title "packets dropped/bit error, sum(packetBytes)"
scalar ClientServer.client[4].eth[0].mac rxPkFromHL:count 0
attr interpolationmode none
attr source rxPkFromHL
attr title "packet bytes from higher layer, count"
scalar ClientServer.client[4].eth[0].mac rxPkFromHL:sum(packetBytes) 0
attr interpolationmode none
attr source rxPkFromHL
attr title "packet bytes from higher layer, sum(packetBytes)"
scalar ClientServer.client[4].eth[0].mac rxPausePkUnits:count 0
attr interpolationmode none
attr title "pause units received, count"
scalar ClientServer.client[4].eth[0].mac rxPausePkUnits:sum 0
attr interpolationmode none
attr title "pause units received, sum"
scalar ClientServer.client[4].eth[0].mac txPausePkUnits:count 0
attr interpolationmode none
attr title "pause units sent, count"
scalar ClientServer.client[4].eth[0].mac txPausePkUnits:sum 0
attr interpolationmode none
attr title "pause units sent, sum"
scalar ClientServer.client[4].eth[0].mac rxPkOk:count 0
attr interpolationmode none
attr source rxPkOk
attr title "packets received OK, count"
scalar ClientServer.client[4].eth[0].mac rxPkOk:sum(packetBytes) 0
attr interpolationmode none
attr source rxPkOk
attr title "packets received OK, sum(packetBytes)"
scalar ClientServer.client[4].eth[0].mac txPk:count 0
attr interpolationmode none
attr source txPk
attr title "packets transmitted, count"
scalar ClientServer.client[4].eth[0].mac txPk:sum(packetBytes) 0
attr interpolationmode none
attr source txPk
attr title "packets transmitted, sum(packetBytes)"
scalar ClientServer.client[4].eth[0].mac passedUpPk:count 0
attr interpolationmode none
attr source packetSentToUpper
attr title "packets passed to higher layer, count"
scalar ClientServer.client[4].eth[0].mac passedUpPk:sum(packetBytes) 0
attr interpolationmode none
attr source packetSentToUpper
attr title "packets passed to higher layer, sum(packetBytes)"
scalar ClientServer.client[4].eth[0].encap pauseSent:count 0
attr title "pause sent, count"
scalar ClientServer.client[4].eth[0].encap pauseSent:sum 0
attr title "pause sent, sum"
scalar ClientServer.client[4].eth[0].encap decapPk:count 0
attr interpolationmode none
attr source decapPk
attr title "packets decapsulated, count"
scalar ClientServer.client[4].eth[0].encap decapPk:sum(packetBytes) 0
attr interpolationmode none
attr source decapPk
attr title "packets decapsulated, sum(packetBytes)"
scalar ClientServer.client[4].eth[0].encap encapPk:count 0
attr interpolationmode none
attr source encapPk
attr title "packets encapsulated, count"
scalar ClientServer.client[4].eth[0].encap encapPk:sum(packetBytes) 0
attr interpolationmode none
attr source encapPk
attr title "packets encapsulated, sum(packetBytes)"
scalar ClientServer.client[5].lo0.lo droppedPkBitError:count 0
attr interpolationmode none
attr source dropPkBitError
attr title "packets dropped/bit error, count"
scalar ClientServer.client[5].lo0.lo droppedPkBitError:sum(packetBytes) 0
attr interpolationmode none
attr source dropPkBitError
attr title "packets dropped/bit error, sum(packetBytes)"
scalar ClientServer.client[5].lo0.lo rcvdPkFromHL:count 0
attr interpolationmode none
attr source packetReceivedFromUpper
attr title "packets received from higher layer, count"
scalar ClientServer.client[5].lo0.lo rcvdPkFromHL:sum(packetBytes) 0
attr interpolationmode none
attr source packetReceivedFromUpper
attr title "packets received from higher layer, sum(packetBytes)"
scalar ClientServer.client[5].lo0.lo passedUpPk:count 0
attr interpolationmode none
attr source packetSentToUpper
attr title "packets passed to higher layer, count"
scalar ClientServer.client[5].lo0.lo passedUpPk:sum(packetBytes) 0
attr interpolationmode none
attr source packetSentToUpper
attr title "packets passed to higher layer, sum(packetBytes)"
scalar ClientServer.client[5].eth[0].mac "simulated time" 0.142105233227
scalar ClientServer.client[5].eth[0].mac full-duplex 1
scalar ClientServer.client[5].eth[0].mac "frames/sec sent" 0
scalar ClientServer.client[5].eth[0].mac "frames/sec rcvd" 0
scalar ClientServer.client[5].eth[0].mac "bits/sec sent" 0
scalar ClientServer.client[5].eth[0].mac "bits/sec rcvd" 0
scalar ClientServer.client[5].eth[0].mac "rx channel idle (%)" 100
scalar ClientServer.client[5].eth[0].mac "rx channel utilization (%)" 0
scalar ClientServer.client[5].eth[0].mac droppedPkNotForUs:count 0
attr interpolationmode none
attr source dropPkNotForUs
attr title "packets dropped/not for us, count"
scalar ClientServer.client[5].eth[0].mac droppedPkNotForUs:sum(packetBytes) 0
attr interpolationmode none
attr source dropPkNotForUs
attr title "packets dropped/not for us, sum(packetBytes)"
scalar ClientServer.client[5].eth[0].mac droppedPkIfaceDown:count 0
attr interpolationmode none
attr source dropPkIfaceDown
attr title "packets dropped/interface down, count"
scalar ClientServer.client[5].eth[0].mac droppedPkIfaceDown:sum(packetBytes) 0
attr interpolationmode none
attr source dropPkIfaceDown
attr title "packets dropped/interface down, sum(packetBytes)"
scalar ClientServer.client[5].eth[0].mac droppedPkBitError:count 0
attr interpolationmode none
attr source dropPkBitError
attr title "packets dropped/bit error, count"
scalar ClientServer.client[5].eth[0].mac droppedPkBitError:sum(packetBytes) 0
attr interpolationmode none
attr source dropPkBitError
attr title "packets dropped/bit error, sum(packetBytes)"
scalar ClientServer.client[5].eth[0].mac rxPkFromHL:count 0
attr interpolationmode none
attr source rxPkFromHL
attr title "packet bytes from higher layer, count"
scalar ClientServer.client[5].eth[0].mac rxPkFromHL:sum(packetBytes) 0
attr interpolationmode none
attr source rxPkFromHL
attr title "packet bytes from higher layer, sum(packetBytes)"
scalar ClientServer.client[5].eth[0].mac rxPausePkUnits:count 0
attr interpolationmode none
attr title "pause units received, count"
scalar ClientServer.client[5].eth[0].mac rxPausePkUnits:sum 0
attr interpolationmode none
attr title "pause units received, sum"
scalar ClientServer.client[5].eth[0].mac txPausePkUnits:count 0
attr interpolationmode none
attr title "pause units sent, count"
scalar ClientServer.client[5].eth[0].mac txPausePkUnits:sum 0
attr interpolationmode none
attr title "pause units sent, sum"
scalar ClientServer.client[5].eth[0].mac rxPkOk:count 0
attr interpolationmode none
attr source rxPkOk
attr title "packets received OK, count"
scalar ClientServer.client[5].eth[0].mac rxPkOk:sum(packetBytes) 0
attr interpolationmode none
attr source rxPkOk
attr title "packets received OK, sum(packetBytes)"
scalar ClientServer.client[5].eth[0].mac txPk:count 0
attr interpolationmode none
attr source txPk
attr title "packets transmitted, count"
scalar ClientServer.client[5].eth[0].mac txPk:sum(packetBytes) 0
attr interpolationmode none
attr source txPk
attr title "packets transmitted, sum(packetBytes)"
scalar ClientServer.client[5].eth[0].mac passedUpPk:count 0
attr interpolationmode none
attr source packetSentToUpper
attr title "packets passed to higher layer, count"
scalar ClientServer.client[5].eth[0].mac passedUpPk:sum(packetBytes) 0
attr interpolationmode none
attr source packetSentToUpper
attr title "packets passed to higher layer, sum(packetBytes)"
scalar ClientServer.client[5].eth[0].encap pauseSent:count 0
attr title "pause sent, count"
scalar ClientServer.client[5].eth[0].encap pauseSent:sum 0
attr title "pause sent, sum"
scalar ClientServer.client[5].eth[0].encap decapPk:count 0
attr interpolationmode none
attr source decapPk
attr title "packets decapsulated, count"
scalar ClientServer.client[5].eth[0].encap decapPk:sum(packetBytes) 0
attr interpolationmode none
attr source decapPk
attr title "packets decapsulated, sum(packetBytes)"
scalar ClientServer.client[5].eth[0].encap encapPk:count 0
attr interpolationmode none
attr source encapPk
attr title "packets encapsulated, count"
scalar ClientServer.client[5].eth[0].encap encapPk:sum(packetBytes) 0
attr interpolationmode none
attr source encapPk
attr title "packets encapsulated, sum(packetBytes)"
scalar ClientServer.client[6].lo0.lo droppedPkBitError:count 0
attr interpolationmode none
attr source dropPkBitError
attr title "packets dropped/bit error, count"
scalar ClientServer.client[6].lo0.lo droppedPkBitError:sum(packetBytes) 0
attr interpolationmode none
attr source dropPkBitError
attr title "packets dropped/bit error, sum(packetBytes)"
scalar ClientServer.client[6].lo0.lo rcvdPkFromHL:count 0
attr interpolationmode none
attr source packetReceivedFromUpper
attr title "packets received from higher layer, count"
scalar ClientServer.client[6].lo0.lo rcvdPkFromHL:sum(packetBytes) 0
attr interpolationmode none
attr source packetReceivedFromUpper
attr title "packets received from higher layer, sum(packetBytes)"
scalar ClientServer.client[6].lo0.lo passedUpPk:count 0
attr interpolationmode none
attr source packetSentToUpper
attr title "packets passed to higher layer, count"
scalar ClientServer.client[6].lo0.lo passedUpPk:sum(packetBytes) 0
attr interpolationmode none
attr source packetSentToUpper
attr title "packets passed to higher layer, sum(packetBytes)"
scalar ClientServer.client[6].eth[0].mac "simulated time" 0.142105233227
scalar ClientServer.client[6].eth[0].mac full-duplex 1
scalar ClientServer.client[6].eth[0].mac "frames/sec sent" 0
scalar ClientServer.client[6].eth[0].mac "frames/sec rcvd" 0
scalar ClientServer.client[6].eth[0].mac "bits/sec sent" 0
scalar ClientServer.client[6].eth[0].mac "bits/sec rcvd" 0
scalar ClientServer.client[6].eth[0].mac "rx channel idle (%)" 100
scalar ClientServer.client[6].eth[0].mac "rx channel utilization (%)" 0
scalar ClientServer.client[6].eth[0].mac droppedPkNotForUs:count 0
attr interpolationmode none
attr source dropPkNotForUs
attr title "packets dropped/not for us, count"
scalar ClientServer.client[6].eth[0].mac droppedPkNotForUs:sum(packetBytes) 0
attr interpolationmode none
attr source dropPkNotForUs
attr title "packets dropped/not for us, sum(packetBytes)"
scalar ClientServer.client[6].eth[0].mac droppedPkIfaceDown:count 0
attr interpolationmode none
attr source dropPkIfaceDown
attr title "packets dropped/interface down, count"
scalar ClientServer.client[6].eth[0].mac droppedPkIfaceDown:sum(packetBytes) 0
attr interpolationmode none
attr source dropPkIfaceDown
attr title "packets dropped/interface down, sum(packetBytes)"
scalar ClientServer.client[6].eth[0].mac droppedPkBitError:count 0
attr interpolationmode none
attr source dropPkBitError
attr title "packets dropped/bit error, count"
scalar ClientServer.client[6].eth[0].mac droppedPkBitError:sum(packetBytes) 0
attr interpolationmode none
attr source dropPkBitError
attr title "packets dropped/bit error, sum(packetBytes)"
scalar ClientServer.client[6].eth[0].mac rxPkFromHL:count 0
attr interpolationmode none
attr source rxPkFromHL
attr title "packet bytes from higher layer, count"
scalar ClientServer.client[6].eth[0].mac rxPkFromHL:sum(packetBytes) 0
attr interpolationmode none
attr source rxPkFromHL
attr title "packet bytes from higher layer, sum(packetBytes)"
scalar ClientServer.client[6].eth[0].mac rxPausePkUnits:count 0
attr interpolationmode none
attr title "pause units received, count"
scalar ClientServer.client[6].eth[0].mac rxPausePkUnits:sum 0
attr interpolationmode none
attr title "pause units received, sum"
scalar ClientServer.client[6].eth[0].mac txPausePkUnits:count 0
attr interpolationmode none
attr title "pause units sent, count"
scalar ClientServer.client[6].eth[0].mac txPausePkUnits:sum 0
attr interpolationmode none
attr title "pause units sent, sum"
scalar ClientServer.client[6].eth[0].mac rxPkOk:count 0
attr interpolationmode none
attr source rxPkOk
attr title "packets received OK, count"
scalar ClientServer.client[6].eth[0].mac rxPkOk:sum(packetBytes) 0
attr interpolationmode none
attr source rxPkOk
attr title "packets received OK, sum(packetBytes)"
scalar ClientServer.client[6].eth[0].mac txPk:count 0
attr interpolationmode none
attr source txPk
attr title "packets transmitted, count"
scalar ClientServer.client[6].eth[0].mac txPk:sum(packetBytes) 0
attr interpolationmode none
attr source txPk
attr title "packets transmitted, sum(packetBytes)"
scalar ClientServer.client[6].eth[0].mac passedUpPk:count 0
attr interpolationmode none
attr source packetSentToUpper
attr title "packets passed to higher layer, count"
scalar ClientServer.client[6].eth[0].mac passedUpPk:sum(packetBytes) 0
attr interpolationmode none
attr source packetSentToUpper
attr title "packets passed to higher layer, sum(packetBytes)"
scalar ClientServer.client[6].eth[0].encap pauseSent:count 0
attr title "pause sent, count"
scalar ClientServer.client[6].eth[0].encap pauseSent:sum 0
attr title "pause sent, sum"
scalar ClientServer.client[6].eth[0].encap decapPk:count 0
attr interpolationmode none
attr source decapPk
attr title "packets decapsulated, count"
scalar ClientServer.client[6].eth[0].encap decapPk:sum(packetBytes) 0
attr interpolationmode none
attr source decapPk
attr title "packets decapsulated, sum(packetBytes)"
scalar ClientServer.client[6].eth[0].encap encapPk:count 0
attr interpolationmode none
attr source encapPk
attr title "packets encapsulated, count"
scalar ClientServer.client[6].eth[0].encap encapPk:sum(packetBytes) 0
attr interpolationmode none
attr source encapPk
attr title "packets encapsulated, sum(packetBytes)"
scalar ClientServer.client[7].lo0.lo droppedPkBitError:count 0
attr interpolationmode none
attr source dropPkBitError
attr title "packets dropped/bit error, count"
scalar ClientServer.client[7].lo0.lo droppedPkBitError:sum(packetBytes) 0
attr interpolationmode none
attr source dropPkBitError
attr title "packets dropped/bit error, sum(packetBytes)"
scalar ClientServer.client[7].lo0.lo rcvdPkFromHL:count 0
attr interpolationmode none
attr source packetReceivedFromUpper
attr title "packets received from higher layer, count"
scalar ClientServer.client[7].lo0.lo rcvdPkFromHL:sum(packetBytes) 0
attr interpolationmode none
attr source packetReceivedFromUpper
attr title "packets received from higher layer, sum(packetBytes)"
scalar ClientServer.client[7].lo0.lo passedUpPk:count 0
attr interpolationmode none
attr source packetSentToUpper
attr title "packets passed to higher layer, count"
scalar ClientServer.client[7].lo0.lo passedUpPk:sum(packetBytes) 0
attr interpolationmode none
attr source packetSentToUpper
attr title "packets passed to higher layer, sum(packetBytes)"
scalar ClientServer.client[7].eth[0].mac "simulated time" 0.142105233227
scalar ClientServer.client[7].eth[0].mac full-duplex 1
scalar ClientServer.client[7].eth[0].mac "frames/sec sent" 0
scalar ClientServer.client[7].eth[0].mac "frames/sec rcvd" 0
scalar ClientServer.client[7].eth[0].mac "bits/sec sent" 0
scalar ClientServer.client[7].eth[0].mac "bits/sec rcvd" 0
scalar ClientServer.client[7].eth[0].mac "rx channel idle (%)" 100
scalar ClientServer.client[7].eth[0].mac "rx channel utilization (%)" 0
scalar ClientServer.client[7].eth[0].mac droppedPkNotForUs:count 0
attr interpolationmode none
attr source dropPkNotForUs
attr title "packets dropped/not for us, count"
scalar ClientServer.client[7].eth[0].mac droppedPkNotForUs:sum(packetBytes) 0
attr interpolationmode none
attr source dropPkNotForUs
attr title "packets dropped/not for us, sum(packetBytes)"
scalar ClientServer.client[7].eth[0].mac droppedPkIfaceDown:count 0
attr interpolationmode none
attr source dropPkIfaceDown
attr title "packets dropped/interface down, count"
scalar ClientServer.client[7].eth[0].mac droppedPkIfaceDown:sum(packetBytes) 0
attr interpolationmode none
attr source dropPkIfaceDown
attr title "packets dropped/interface down, sum(packetBytes)"
scalar ClientServer.client[7].eth[0].mac droppedPkBitError:count 0
attr interpolationmode none
attr source dropPkBitError
attr title "packets dropped/bit error, count"
scalar ClientServer.client[7].eth[0].mac droppedPkBitError:sum(packetBytes) 0
attr interpolationmode none
attr source dropPkBitError
attr title "packets dropped/bit error, sum(packetBytes)"
scalar ClientServer.client[7].eth[0].mac rxPkFromHL:count 0
attr interpolationmode none
attr source rxPkFromHL
attr title "packet bytes from higher layer, count"
scalar ClientServer.client[7].eth[0].mac rxPkFromHL:sum(packetBytes) 0
attr interpolationmode none
attr source rxPkFromHL
attr title "packet bytes from higher layer, sum(packetBytes)"
scalar ClientServer.client[7].eth[0].mac rxPausePkUnits:count 0
attr interpolationmode none
attr title "pause units received, count"
scalar ClientServer.client[7].eth[0].mac rxPausePkUnits:sum 0
attr interpolationmode none
attr title "pause units received, sum"
scalar ClientServer.client[7].eth[0].mac txPausePkUnits:count 0
attr interpolationmode none
attr title "pause units sent, count"
scalar ClientServer.client[7].eth[0].mac txPausePkUnits:sum 0
attr interpolationmode none
attr title "pause units sent, sum"
scalar ClientServer.client[7].eth[0].mac rxPkOk:count 0
attr interpolationmode none
attr source rxPkOk
attr title "packets received OK, count"
scalar ClientServer.client[7].eth[0].mac rxPkOk:sum(packetBytes) 0
attr interpolationmode none
attr source rxPkOk
attr title "packets received OK, sum(packetBytes)"
scalar ClientServer.client[7].eth[0].mac txPk:count 0
attr interpolationmode none
attr source txPk
attr title "packets transmitted, count"
scalar ClientServer.client[7].eth[0].mac txPk:sum(packetBytes) 0
attr interpolationmode none
attr source txPk
attr title "packets transmitted, sum(packetBytes)"
scalar ClientServer.client[7].eth[0].mac passedUpPk:count 0
attr interpolationmode none
attr source packetSentToUpper
attr title "packets passed to higher layer, count"
scalar ClientServer.client[7].eth[0].mac passedUpPk:sum(packetBytes) 0
attr interpolationmode none
attr source packetSentToUpper
attr title "packets passed to higher layer, sum(packetBytes)"
scalar ClientServer.client[7].eth[0].encap pauseSent:count 0
attr title "pause sent, count"
scalar ClientServer.client[7].eth[0].encap pauseSent:sum 0
attr title "pause sent, sum"
scalar ClientServer.client[7].eth[0].encap decapPk:count 0
attr interpolationmode none
attr source decapPk
attr title "packets decapsulated, count"
scalar ClientServer.client[7].eth[0].encap decapPk:sum(packetBytes) 0
attr interpolationmode none
attr source decapPk
attr title "packets decapsulated, sum(packetBytes)"
scalar ClientServer.client[7].eth[0].encap encapPk:count 0
attr interpolationmode none
attr source encapPk
attr title "packets encapsulated, count"
scalar ClientServer.client[7].eth[0].encap encapPk:sum(packetBytes) 0
attr interpolationmode none
attr source encapPk
attr title "packets encapsulated, sum(packetBytes)"
scalar ClientServer.client[8].lo0.lo droppedPkBitError:count 0
attr interpolationmode none
attr source dropPkBitError
attr title "packets dropped/bit error, count"
scalar ClientServer.client[8].lo0.lo droppedPkBitError:sum(packetBytes) 0
attr interpolationmode none
attr source dropPkBitError
attr title "packets dropped/bit error, sum(packetBytes)"
scalar ClientServer.client[8].lo0.lo rcvdPkFromHL:count 0
attr interpolationmode none
attr source packetReceivedFromUpper
attr title "packets received from higher layer, count"
scalar ClientServer.client[8].lo0.lo rcvdPkFromHL:sum(packetBytes) 0
attr interpolationmode none
attr source packetReceivedFromUpper
attr title "packets received from higher layer, sum(packetBytes)"
scalar ClientServer.client[8].lo0.lo passedUpPk:count 0
attr interpolationmode none
attr source packetSentToUpper
attr title "packets passed to higher layer, count"
scalar ClientServer.client[8].lo0.lo passedUpPk:sum(packetBytes) 0
attr interpolationmode none
attr source packetSentToUpper
attr title "packets passed to higher layer, sum(packetBytes)"
scalar ClientServer.client[8].eth[0].mac "simulated time" 0.142105233227
scalar ClientServer.client[8].eth[0].mac full-duplex 1
scalar ClientServer.client[8].eth[0].mac "frames/sec sent" 0
scalar ClientServer.client[8].eth[0].mac "frames/sec rcvd" 0
scalar ClientServer.client[8].eth[0].mac "bits/sec sent" 0
scalar ClientServer.client[8].eth[0].mac "bits/sec rcvd" 0
scalar ClientServer.client[8].eth[0].mac "rx channel idle (%)" 100
scalar ClientServer.client[8].eth[0].mac "rx channel utilization (%)" 0
scalar ClientServer.client[8].eth[0].mac droppedPkNotForUs:count 0
attr interpolationmode none
attr source dropPkNotForUs
attr title "packets dropped/not for us, count"
scalar ClientServer.client[8].eth[0].mac droppedPkNotForUs:sum(packetBytes) 0
attr interpolationmode none
attr source dropPkNotForUs
attr title "packets dropped/not for us, sum(packetBytes)"
scalar ClientServer.client[8].eth[0].mac droppedPkIfaceDown:count 0
attr interpolationmode none
attr source dropPkIfaceDown
attr title "packets dropped/interface down, count"
scalar ClientServer.client[8].eth[0].mac droppedPkIfaceDown:sum(packetBytes) 0
attr interpolationmode none
attr source dropPkIfaceDown
attr title "packets dropped/interface down, sum(packetBytes)"
scalar ClientServer.client[8].eth[0].mac droppedPkBitError:count 0
attr interpolationmode none
attr source dropPkBitError
attr title "packets dropped/bit error, count"
scalar ClientServer.client[8].eth[0].mac droppedPkBitError:sum(packetBytes) 0
attr interpolationmode none
attr source dropPkBitError
attr title "packets dropped/bit error, sum(packetBytes)"
scalar ClientServer.client[8].eth[0].mac rxPkFromHL:count 0
attr interpolationmode none
attr source rxPkFromHL
attr title "packet bytes from higher layer, count"
scalar ClientServer.client[8].eth[0].mac rxPkFromHL:sum(packetBytes) 0
attr interpolationmode none
attr source rxPkFromHL
attr title "packet bytes from higher layer, sum(packetBytes)"
scalar ClientServer.client[8].eth[0].mac rxPausePkUnits:count 0
attr interpolationmode none
attr title "pause units received, count"
scalar ClientServer.client[8].eth[0].mac rxPausePkUnits:sum 0
attr interpolationmode none
attr title "pause units received, sum"
scalar ClientServer.client[8].eth[0].mac txPausePkUnits:count 0
attr interpolationmode none
attr title "pause units sent, count"
scalar ClientServer.client[8].eth[0].mac txPausePkUnits:sum 0
attr interpolationmode none
attr title "pause units sent, sum"
scalar ClientServer.client[8].eth[0].mac rxPkOk:count 0
attr interpolationmode none
attr source rxPkOk
attr title "packets received OK, count"
scalar ClientServer.client[8].eth[0].mac rxPkOk:sum(packetBytes) 0
attr interpolationmode none
attr source rxPkOk
attr title "packets received OK, sum(packetBytes)"
scalar ClientServer.client[8].eth[0].mac txPk:count 0
attr interpolationmode none
attr source txPk
attr title "packets transmitted, count"
scalar ClientServer.client[8].eth[0].mac txPk:sum(packetBytes) 0
attr interpolationmode none
attr source txPk
attr title "packets transmitted, sum(packetBytes)"
scalar ClientServer.client[8].eth[0].mac passedUpPk:count 0
attr interpolationmode none
attr source packetSentToUpper
attr title "packets passed to higher layer, count"
scalar ClientServer.client[8].eth[0].mac passedUpPk:sum(packetBytes) 0
attr interpolationmode none
attr source packetSentToUpper
attr title "packets passed to higher layer, sum(packetBytes)"
scalar ClientServer.client[8].eth[0].encap pauseSent:count 0
attr title "pause sent, count"
scalar ClientServer.client[8].eth[0].encap pauseSent:sum 0
attr title "pause sent, sum"
scalar ClientServer.client[8].eth[0].encap decapPk:count 0
attr interpolationmode none
attr source decapPk
attr title "packets decapsulated, count"
scalar ClientServer.client[8].eth[0].encap decapPk:sum(packetBytes) 0
attr interpolationmode none
attr source decapPk
attr title "packets decapsulated, sum(packetBytes)"
scalar ClientServer.client[8].eth[0].encap encapPk:count 0
attr interpolationmode none
attr source encapPk
attr title "packets encapsulated, count"
scalar ClientServer.client[8].eth[0].encap encapPk:sum(packetBytes) 0
attr interpolationmode none
attr source encapPk
attr title "packets encapsulated, sum(packetBytes)"
scalar ClientServer.client[9].lo0.lo droppedPkBitError:count 0
attr interpolationmode none
attr source dropPkBitError
attr title "packets dropped/bit error, count"
scalar ClientServer.client[9].lo0.lo droppedPkBitError:sum(packetBytes) 0
attr interpolationmode none
attr source dropPkBitError
attr title "packets dropped/bit error, sum(packetBytes)"
scalar ClientServer.client[9].lo0.lo rcvdPkFromHL:count 0
attr interpolationmode none
attr source packetReceivedFromUpper
attr title "packets received from higher layer, count"
scalar ClientServer.client[9].lo0.lo rcvdPkFromHL:sum(packetBytes) 0
attr interpolationmode none
attr source packetReceivedFromUpper
attr title "packets received from higher layer, sum(packetBytes)"
scalar ClientServer.client[9].lo0.lo passedUpPk:count 0
attr interpolationmode none
attr source packetSentToUpper
attr title "packets passed to higher layer, count"
scalar ClientServer.client[9].lo0.lo passedUpPk:sum(packetBytes) 0
attr interpolationmode none
attr source packetSentToUpper
attr title "packets passed to higher layer, sum(packetBytes)"
scalar ClientServer.client[9].eth[0].mac "simulated time" 0.142105233227
scalar ClientServer.client[9].eth[0].mac full-duplex 1
scalar ClientServer.client[9].eth[0].mac "frames/sec sent" 0
scalar ClientServer.client[9].eth[0].mac "frames/sec rcvd" 0
scalar ClientServer.client[9].eth[0].mac "bits/sec sent" 0
scalar ClientServer.client[9].eth[0].mac "bits/sec rcvd" 0
scalar ClientServer.client[9].eth[0].mac "rx channel idle (%)" 100
scalar ClientServer.client[9].eth[0].mac "rx channel utilization (%)" 0
scalar ClientServer.client[9].eth[0].mac droppedPkNotForUs:count 0
attr interpolationmode none
attr source dropPkNotForUs
attr title "packets dropped/not for us, count"
scalar ClientServer.client[9].eth[0].mac droppedPkNotForUs:sum(packetBytes) 0
attr interpolationmode none
attr source dropPkNotForUs
attr title "packets dropped/not for us, sum(packetBytes)"
scalar ClientServer.client[9].eth[0].mac droppedPkIfaceDown:count 0
attr interpolationmode none
attr source dropPkIfaceDown
attr title "packets dropped/interface down, count"
scalar ClientServer.client[9].eth[0].mac droppedPkIfaceDown:sum(packetBytes) 0
attr interpolationmode none
attr source dropPkIfaceDown
attr title "packets dropped/interface down, sum(packetBytes)"
scalar ClientServer.client[9].eth[0].mac droppedPkBitError:count 0
attr interpolationmode none
attr source dropPkBitError
attr title "packets dropped/bit error, count"
scalar ClientServer.client[9].eth[0].mac droppedPkBitError:sum(packetBytes) 0
attr interpolationmode none
attr source dropPkBitError
attr title "packets dropped/bit error, sum(packetBytes)"
scalar ClientServer.client[9].eth[0].mac rxPkFromHL:count 0
attr interpolationmode none
attr source rxPkFromHL
attr title "packet bytes from higher layer, count"
scalar ClientServer.client[9].eth[0].mac rxPkFromHL:sum(packetBytes) 0
attr interpolationmode none
attr source rxPkFromHL
attr title "packet bytes from higher layer, sum(packetBytes)"
scalar ClientServer.client[9].eth[0].mac rxPausePkUnits:count 0
attr interpolationmode none
attr title "pause units received, count"
scalar ClientServer.client[9].eth[0].mac rxPausePkUnits:sum 0
attr interpolationmode none
attr title "pause units received, sum"
scalar ClientServer.client[9].eth[0].mac txPausePkUnits:count 0
attr interpolationmode none
attr title "pause units sent, count"
scalar ClientServer.client[9].eth[0].mac txPausePkUnits:sum 0
attr interpolationmode none
attr title "pause units sent, sum"
scalar ClientServer.client[9].eth[0].mac rxPkOk:count 0
attr interpolationmode none
attr source rxPkOk
attr title "packets received OK, count"
scalar ClientServer.client[9].eth[0].mac rxPkOk:sum(packetBytes) 0
attr interpolationmode none
attr source rxPkOk
attr title "packets received OK, sum(packetBytes)"
scalar ClientServer.client[9].eth[0].mac txPk:count 0
attr interpolationmode none
attr source txPk
attr title "packets transmitted, count"
scalar ClientServer.client[9].eth[0].mac txPk:sum(packetBytes) 0
attr interpolationmode none
attr source txPk
attr title "packets transmitted, sum(packetBytes)"
scalar ClientServer.client[9].eth[0].mac passedUpPk:count 0
attr interpolationmode none
attr source packetSentToUpper
attr title "packets passed to higher layer, count"
scalar ClientServer.client[9].eth[0].mac passedUpPk:sum(packetBytes) 0
attr interpolationmode none
attr source packetSentToUpper
attr title "packets passed to higher layer, sum(packetBytes)"
scalar ClientServer.client[9].eth[0].encap pauseSent:count 0
attr title "pause sent, count"
scalar ClientServer.client[9].eth[0].encap pauseSent:sum 0
attr title "pause sent, sum"
scalar ClientServer.client[9].eth[0].encap decapPk:count 0
attr interpolationmode none
attr source decapPk
attr title "packets decapsulated, count"
scalar ClientServer.client[9].eth[0].encap decapPk:sum(packetBytes) 0
attr interpolationmode none
attr source decapPk
attr title "packets decapsulated, sum(packetBytes)"
scalar ClientServer.client[9].eth[0].encap encapPk:count 0
attr interpolationmode none
attr source encapPk
attr title "packets encapsulated, count"
scalar ClientServer.client[9].eth[0].encap encapPk:sum(packetBytes) 0
attr interpolationmode none
attr source encapPk
attr title "packets encapsulated, sum(packetBytes)"
scalar ClientServer.client[10].lo0.lo droppedPkBitError:count 0
attr interpolationmode none
attr source dropPkBitError
attr title "packets dropped/bit error, count"
scalar ClientServer.client[10].lo0.lo droppedPkBitError:sum(packetBytes) 0
attr interpolationmode none
attr source dropPkBitError
attr title "packets dropped/bit error, sum(packetBytes)"
scalar ClientServer.client[10].lo0.lo rcvdPkFromHL:count 0
attr interpolationmode none
attr source packetReceivedFromUpper
attr title "packets received from higher layer, count"
scalar ClientServer.client[10].lo0.lo rcvdPkFromHL:sum(packetBytes) 0
attr interpolationmode none
attr source packetReceivedFromUpper
attr title "packets received from higher layer, sum(packetBytes)"
scalar ClientServer.client[10].lo0.lo passedUpPk:count 0
attr interpolationmode none
attr source packetSentToUpper
attr title "packets passed to higher layer, count"
scalar ClientServer.client[10].lo0.lo passedUpPk:sum(packetBytes) 0
attr interpolationmode none
attr source packetSentToUpper
attr title "packets passed to higher layer, sum(packetBytes)"
scalar ClientServer.client[10].eth[0].mac "simulated time" 0.142105233227
scalar ClientServer.client[10].eth[0].mac full-duplex 1
scalar ClientServer.client[10].eth[0].mac "frames/sec sent" 0
scalar ClientServer.client[10].eth[0].mac "frames/sec rcvd" 0
scalar ClientServer.client[10].eth[0].mac "bits/sec sent" 0
scalar ClientServer.client[10].eth[0].mac "bits/sec rcvd" 0
scalar ClientServer.client[10].eth[0].mac "rx channel idle (%)" 100
scalar ClientServer.client[10].eth[0].mac "rx channel utilization (%)" 0
scalar ClientServer.client[10].eth[0].mac droppedPkNotForUs:count 0
attr interpolationmode none
attr source dropPkNotForUs
attr title "packets dropped/not for us, count"
scalar ClientServer.client[10].eth[0].mac droppedPkNotForUs:sum(packetBytes) 0
attr interpolationmode none
attr source dropPkNotForUs
attr title "packets dropped/not for us, sum(packetBytes)"
scalar ClientServer.client[10].eth[0].mac droppedPkIfaceDown:count 0
attr interpolationmode none
attr source dropPkIfaceDown
attr title "packets dropped/interface down, count"
scalar ClientServer.client[10].eth[0].mac droppedPkIfaceDown:sum(packetBytes) 0
attr interpolationmode none
attr source dropPkIfaceDown
attr title "packets dropped/interface down, sum(packetBytes)"
scalar ClientServer.client[10].eth[0].mac droppedPkBitError:count 0
attr interpolationmode none
attr source dropPkBitError
attr title "packets dropped/bit error, count"
scalar ClientServer.client[10].eth[0].mac droppedPkBitError:sum(packetBytes) 0
attr interpolationmode none
attr source dropPkBitError
attr title "packets dropped/bit error, sum(packetBytes)"
scalar ClientServer.client[10].eth[0].mac rxPkFromHL:count 0
attr interpolationmode none
attr source rxPkFromHL
attr title "packet bytes from higher layer, count"
scalar ClientServer.client[10].eth[0].mac rxPkFromHL:sum(packetBytes) 0
attr interpolationmode none
attr source rxPkFromHL
attr title "packet bytes from higher layer, sum(packetBytes)"
scalar ClientServer.client[10].eth[0].mac rxPausePkUnits:count 0
attr interpolationmode none
attr title "pause units received, count"
scalar ClientServer.client[10].eth[0].mac rxPausePkUnits:sum 0
attr interpolationmode none
attr title "pause units received, sum"
scalar ClientServer.client[10].eth[0].mac txPausePkUnits:count 0
attr interpolationmode none
attr title "pause units sent, count"
scalar ClientServer.client[10].eth[0].mac txPausePkUnits:sum 0
attr interpolationmode none
attr title "pause units sent, sum"
scalar ClientServer.client[10].eth[0].mac rxPkOk:count 0
attr interpolationmode none
attr source rxPkOk
attr title "packets received OK, count"
scalar ClientServer.client[10].eth[0].mac rxPkOk:sum(packetBytes) 0
attr interpolationmode none
attr source rxPkOk
attr title "packets received OK, sum(packetBytes)"
scalar ClientServer.client[10].eth[0].mac txPk:count 0
attr interpolationmode none
attr source txPk
attr title "packets transmitted, count"
scalar ClientServer.client[10].eth[0].mac txPk:sum(packetBytes) 0
attr interpolationmode none
attr source txPk
attr title "packets transmitted, sum(packetBytes)"
scalar ClientServer.client[10].eth[0].mac passedUpPk:count 0
attr interpolationmode none
attr source packetSentToUpper
attr title "packets passed to higher layer, count"
scalar ClientServer.client[10].eth[0].mac passedUpPk:sum(packetBytes) 0
attr interpolationmode none
attr source packetSentToUpper
attr title "packets passed to higher layer, sum(packetBytes)"
scalar ClientServer.client[10].eth[0].encap pauseSent:count 0
attr title "pause sent, count"
scalar ClientServer.client[10].eth[0].encap pauseSent:sum 0
attr title "pause sent, sum"
scalar ClientServer.client[10].eth[0].encap decapPk:count 0
attr interpolationmode none
attr source decapPk
attr title "packets decapsulated, count"
scalar ClientServer.client[10].eth[0].encap decapPk:sum(packetBytes) 0
attr interpolationmode none
attr source decapPk
attr title "packets decapsulated, sum(packetBytes)"
scalar ClientServer.client[10].eth[0].encap encapPk:count 0
attr interpolationmode none
attr source encapPk
attr title "packets encapsulated, count"
scalar ClientServer.client[10].eth[0].encap encapPk:sum(packetBytes) 0
attr interpolationmode none
attr source encapPk
attr title "packets encapsulated, sum(packetBytes)"
scalar ClientServer.client[11].lo0.lo droppedPkBitError:count 0
attr interpolationmode none
attr source dropPkBitError
attr title "packets dropped/bit error, count"
scalar ClientServer.client[11].lo0.lo droppedPkBitError:sum(packetBytes) 0
attr interpolationmode none
attr source dropPkBitError
attr title "packets dropped/bit error, sum(packetBytes)"
scalar ClientServer.client[11].lo0.lo rcvdPkFromHL:count 0
attr interpolationmode none
attr source packetReceivedFromUpper
attr title "packets received from higher layer, count"
scalar ClientServer.client[11].lo0.lo rcvdPkFromHL:sum(packetBytes) 0
attr interpolationmode none
attr source packetReceivedFromUpper
attr title "packets received from higher layer, sum(packetBytes)"
scalar ClientServer.client[11].lo0.lo passedUpPk:count 0
attr interpolationmode none
attr source packetSentToUpper
attr title "packets passed to higher layer, count"
scalar ClientServer.client[11].lo0.lo passedUpPk:sum(packetBytes) 0
attr interpolationmode none
attr source packetSentToUpper
attr title "packets passed to higher layer, sum(packetBytes)"
scalar ClientServer.client[11].eth[0].mac "simulated time" 0.142105233227
scalar ClientServer.client[11].eth[0].mac full-duplex 1
scalar ClientServer.client[11].eth[0].mac "frames/sec sent" 0
scalar ClientServer.client[11].eth[0].mac "frames/sec rcvd" 0
scalar ClientServer.client[11].eth[0].mac "bits/sec sent" 0
scalar ClientServer.client[11].eth[0].mac "bits/sec rcvd" 0
scalar ClientServer.client[11].eth[0].mac "rx channel idle (%)" 100
scalar ClientServer.client[11].eth[0].mac "rx channel utilization (%)" 0
scalar ClientServer.client[11].eth[0].mac droppedPkNotForUs:count 0
attr interpolationmode none
attr source dropPkNotForUs
attr title "packets dropped/not for us, count"
scalar ClientServer.client[11].eth[0].mac droppedPkNotForUs:sum(packetBytes) 0
attr interpolationmode none
attr source dropPkNotForUs
attr title "packets dropped/not for us, sum(packetBytes)"
scalar ClientServer.client[11].eth[0].mac droppedPkIfaceDown:count 0
attr interpolationmode none
attr source dropPkIfaceDown
attr title "packets dropped/interface down, count"
scalar ClientServer.client[11].eth[0].mac droppedPkIfaceDown:sum(packetBytes) 0
attr interpolationmode none
attr source dropPkIfaceDown
attr title "packets dropped/interface down, sum(packetBytes)"
scalar ClientServer.client[11].eth[0].mac droppedPkBitError:count 0
attr interpolationmode none
attr source dropPkBitError
attr title "packets dropped/bit error, count"
scalar ClientServer.client[11].eth[0].mac droppedPkBitError:sum(packetBytes) 0
attr interpolationmode none
attr source dropPkBitError
attr title "packets dropped/bit error, sum(packetBytes)"
scalar ClientServer.client[11].eth[0].mac rxPkFromHL:count 0
attr interpolationmode none
attr source rxPkFromHL
attr title "packet bytes from higher layer, count"
scalar ClientServer.client[11].eth[0].mac rxPkFromHL:sum(packetBytes) 0
attr interpolationmode none
attr source rxPkFromHL
attr title "packet bytes from higher layer, sum(packetBytes)"
scalar ClientServer.client[11].eth[0].mac rxPausePkUnits:count 0
attr interpolationmode none
attr title "pause units received, count"
scalar ClientServer.client[11].eth[0].mac rxPausePkUnits:sum 0
attr interpolationmode none
attr title "pause units received, sum"
scalar ClientServer.client[11].eth[0].mac txPausePkUnits:count 0
attr interpolationmode none
attr title "pause units sent, count"
scalar ClientServer.client[11].eth[0].mac txPausePkUnits:sum 0
attr interpolationmode none
attr title "pause units sent, sum"
scalar ClientServer.client[11].eth[0].mac rxPkOk:count 0
attr interpolationmode none
attr source rxPkOk
attr title "packets received OK, count"
scalar ClientServer.client[11].eth[0].mac rxPkOk:sum(packetBytes) 0
attr interpolationmode none
attr source rxPkOk
attr title "packets received OK, sum(packetBytes)"
scalar ClientServer.client[11].eth[0].mac txPk:count 0
attr interpolationmode none
attr source txPk
attr title "packets transmitted, count"
scalar ClientServer.client[11].eth[0].mac txPk:sum(packetBytes) 0
attr interpolationmode none
attr source txPk
attr title "packets transmitted, sum(packetBytes)"
scalar ClientServer.client[11].eth[0].mac passedUpPk:count 0
attr interpolationmode none
attr source packetSentToUpper
attr title "packets passed to higher layer, count"
scalar ClientServer.client[11].eth[0].mac passedUpPk:sum(packetBytes) 0
attr interpolationmode none
attr source packetSentToUpper
attr title "packets passed to higher layer, sum(packetBytes)"
scalar ClientServer.client[11].eth[0].encap pauseSent:count 0
attr title "pause sent, count"
scalar ClientServer.client[11].eth[0].encap pauseSent:sum 0
attr title "pause sent, sum"
scalar ClientServer.client[11].eth[0].encap decapPk:count 0
attr interpolationmode none
attr source decapPk
attr title "packets decapsulated, count"
scalar ClientServer.client[11].eth[0].encap decapPk:sum(packetBytes) 0
attr interpolationmode none
attr source decapPk
attr title "packets decapsulated, sum(packetBytes)"
scalar ClientServer.client[11].eth[0].encap encapPk:count 0
attr interpolationmode none
attr source encapPk
attr title "packets encapsulated, count"
scalar ClientServer.client[11].eth[0].encap encapPk:sum(packetBytes) 0
attr interpolationmode none
attr source encapPk
attr title "packets encapsulated, sum(packetBytes)"
scalar ClientServer.client[12].lo0.lo droppedPkBitError:count 0
attr interpolationmode none
attr source dropPkBitError
attr title "packets dropped/bit error, count"
scalar ClientServer.client[12].lo0.lo droppedPkBitError:sum(packetBytes) 0
attr interpolationmode none
attr source dropPkBitError
attr title "packets dropped/bit error, sum(packetBytes)"
scalar ClientServer.client[12].lo0.lo rcvdPkFromHL:count 0
attr interpolationmode none
attr source packetReceivedFromUpper
attr title "packets received from higher layer, count"
scalar ClientServer.client[12].lo0.lo rcvdPkFromHL:sum(packetBytes) 0
attr interpolationmode none
attr source packetReceivedFromUpper
attr title "packets received from higher layer, sum(packetBytes)"
scalar ClientServer.client[12].lo0.lo passedUpPk:count 0
attr interpolationmode none
attr source packetSentToUpper
attr title "packets passed to higher layer, count"
scalar ClientServer.client[12].lo0.lo passedUpPk:sum(packetBytes) 0
attr interpolationmode none
attr source packetSentToUpper
attr title "packets passed to higher layer, sum(packetBytes)"
scalar ClientServer.client[12].eth[0].mac "simulated time" 0.142105233227
scalar ClientServer.client[12].eth[0].mac full-duplex 1
scalar ClientServer.client[12].eth[0].mac "frames/sec sent" 0
scalar ClientServer.client[12].eth[0].mac "frames/sec rcvd" 0
scalar ClientServer.client[12].eth[0].mac "bits/sec sent" 0
scalar ClientServer.client[12].eth[0].mac "bits/sec rcvd" 0
scalar ClientServer.client[12].eth[0].mac "rx channel idle (%)" 100
scalar ClientServer.client[12].eth[0].mac "rx channel utilization (%)" 0
scalar ClientServer.client[12].eth[0].mac droppedPkNotForUs:count 0
attr interpolationmode none
attr source dropPkNotForUs
attr title "packets dropped/not for us, count"
scalar ClientServer.client[12].eth[0].mac droppedPkNotForUs:sum(packetBytes) 0
attr interpolationmode none
attr source dropPkNotForUs
attr title "packets dropped/not for us, sum(packetBytes)"
scalar ClientServer.client[12].eth[0].mac droppedPkIfaceDown:count 0
attr interpolationmode none
attr source dropPkIfaceDown
attr title "packets dropped/interface down, count"
scalar ClientServer.client[12].eth[0].mac droppedPkIfaceDown:sum(packetBytes) 0
attr interpolationmode none
attr source dropPkIfaceDown
attr title "packets dropped/interface down, sum(packetBytes)"
scalar ClientServer.client[12].eth[0].mac droppedPkBitError:count 0
attr interpolationmode none
attr source dropPkBitError
attr title "packets dropped/bit error, count"
scalar ClientServer.client[12].eth[0].mac droppedPkBitError:sum(packetBytes) 0
attr interpolationmode none
attr source dropPkBitError
attr title "packets dropped/bit error, sum(packetBytes)"
scalar ClientServer.client[12].eth[0].mac rxPkFromHL:count 0
attr interpolationmode none
attr source rxPkFromHL
attr title "packet bytes from higher layer, count"
scalar ClientServer.client[12].eth[0].mac rxPkFromHL:sum(packetBytes) 0
attr interpolationmode none
attr source rxPkFromHL
attr title "packet bytes from higher layer, sum(packetBytes)"
scalar ClientServer.client[12].eth[0].mac rxPausePkUnits:count 0
attr interpolationmode none
attr title "pause units received, count"
scalar ClientServer.client[12].eth[0].mac rxPausePkUnits:sum 0
attr interpolationmode none
attr title "pause units received, sum"
scalar ClientServer.client[12].eth[0].mac txPausePkUnits:count 0
attr interpolationmode none
attr title "pause units sent, count"
scalar ClientServer.client[12].eth[0].mac txPausePkUnits:sum 0
attr interpolationmode none
attr title "pause units sent, sum"
scalar ClientServer.client[12].eth[0].mac rxPkOk:count 0
attr interpolationmode none
attr source rxPkOk
attr title "packets received OK, count"
scalar ClientServer.client[12].eth[0].mac rxPkOk:sum(packetBytes) 0
attr interpolationmode none
attr source rxPkOk
attr title "packets received OK, sum(packetBytes)"
scalar ClientServer.client[12].eth[0].mac txPk:count 0
attr interpolationmode none
attr source txPk
attr title "packets transmitted, count"
scalar ClientServer.client[12].eth[0].mac txPk:sum(packetBytes) 0
attr interpolationmode none
attr source txPk
attr title "packets transmitted, sum(packetBytes)"
scalar ClientServer.client[12].eth[0].mac passedUpPk:count 0
attr interpolationmode none
attr source packetSentToUpper
attr title "packets passed to higher layer, count"
scalar ClientServer.client[12].eth[0].mac passedUpPk:sum(packetBytes) 0
attr interpolationmode none
attr source packetSentToUpper
attr title "packets passed to higher layer, sum(packetBytes)"
scalar ClientServer.client[12].eth[0].encap pauseSent:count 0
attr title "pause sent, count"
scalar ClientServer.client[12].eth[0].encap pauseSent:sum 0
attr title "pause sent, sum"
scalar ClientServer.client[12].eth[0].encap decapPk:count 0
attr interpolationmode none
attr source decapPk
attr title "packets decapsulated, count"
scalar ClientServer.client[12].eth[0].encap decapPk:sum(packetBytes) 0
attr interpolationmode none
attr source decapPk
attr title "packets decapsulated, sum(packetBytes)"
scalar ClientServer.client[12].eth[0].encap encapPk:count 0
attr interpolationmode none
attr source encapPk
attr title "packets encapsulated, count"
scalar ClientServer.client[12].eth[0].encap encapPk:sum(packetBytes) 0
attr interpolationmode none
attr source encapPk
attr title "packets encapsulated, sum(packetBytes)"
scalar ClientServer.client[13].lo0.lo droppedPkBitError:count 0
attr interpolationmode none
attr source dropPkBitError
attr title "packets dropped/bit error, count"
scalar ClientServer.client[13].lo0.lo droppedPkBitError:sum(packetBytes) 0
attr interpolationmode none
attr source dropPkBitError
attr title "packets dropped/bit error, sum(packetBytes)"
scalar ClientServer.client[13].lo0.lo rcvdPkFromHL:count 0
attr interpolationmode none
attr source packetReceivedFromUpper
attr title "packets received from higher layer, count"
scalar ClientServer.client[13].lo0.lo rcvdPkFromHL:sum(packetBytes) 0
attr interpolationmode none
attr source packetReceivedFromUpper
attr title "packets received from higher layer, sum(packetBytes)"
scalar ClientServer.client[13].lo0.lo passedUpPk:count 0
attr interpolationmode none
attr source packetSentToUpper
attr title "packets passed to higher layer, count"
scalar ClientServer.client[13].lo0.lo passedUpPk:sum(packetBytes) 0
attr interpolationmode none
attr source packetSentToUpper
attr title "packets passed to higher layer, sum(packetBytes)"
scalar ClientServer.client[13].eth[0].mac "simulated time" 0.142105233227
scalar ClientServer.client[13].eth[0].mac full-duplex 1
scalar ClientServer.client[13].eth[0].mac "frames/sec sent" 0
scalar ClientServer.client[13].eth[0].mac "frames/sec rcvd" 0
scalar ClientServer.client[13].eth[0].mac "bits/sec sent" 0
scalar ClientServer.client[13].eth[0].mac "bits/sec rcvd" 0
scalar ClientServer.client[13].eth[0].mac "rx channel idle (%)" 100
scalar ClientServer.client[13].eth[0].mac "rx channel utilization (%)" 0
scalar ClientServer.client[13].eth[0].mac droppedPkNotForUs:count 0
attr interpolationmode none
attr source dropPkNotForUs
attr title "packets dropped/not for us, count"
scalar ClientServer.client[13].eth[0].mac droppedPkNotForUs:sum(packetBytes) 0
attr interpolationmode none
attr source dropPkNotForUs
attr title "packets dropped/not for us, sum(packetBytes)"
scalar ClientServer.client[13].eth[0].mac droppedPkIfaceDown:count 0
attr interpolationmode none
attr source dropPkIfaceDown
attr title "packets dropped/interface down, count"
scalar ClientServer.client[13].eth[0].mac droppedPkIfaceDown:sum(packetBytes) 0
attr interpolationmode none
attr source dropPkIfaceDown
attr title "packets dropped/interface down, sum(packetBytes)"
scalar ClientServer.client[13].eth[0].mac droppedPkBitError:count 0
attr interpolationmode none
attr source dropPkBitError
attr title "packets dropped/bit error, count"
scalar ClientServer.client[13].eth[0].mac droppedPkBitError:sum(packetBytes) 0
attr interpolationmode none
attr source dropPkBitError
attr title "packets dropped/bit error, sum(packetBytes)"
scalar ClientServer.client[13].eth[0].mac rxPkFromHL:count 0
attr interpolationmode none
attr source rxPkFromHL
attr title "packet bytes from higher layer, count"
scalar ClientServer.client[13].eth[0].mac rxPkFromHL:sum(packetBytes) 0
attr interpolationmode none
attr source rxPkFromHL
attr title "packet bytes from higher layer, sum(packetBytes)"
scalar ClientServer.client[13].eth[0].mac rxPausePkUnits:count 0
attr interpolationmode none
attr title "pause units received, count"
scalar ClientServer.client[13].eth[0].mac rxPausePkUnits:sum 0
attr interpolationmode none
attr title "pause units received, sum"
scalar ClientServer.client[13].eth[0].mac txPausePkUnits:count 0
attr interpolationmode none
attr title "pause units sent, count"
scalar ClientServer.client[13].eth[0].mac txPausePkUnits:sum 0
attr interpolationmode none
attr title "pause units sent, sum"
scalar ClientServer.client[13].eth[0].mac rxPkOk:count 0
attr interpolationmode none
attr source rxPkOk
attr title "packets received OK, count"
scalar ClientServer.client[13].eth[0].mac rxPkOk:sum(packetBytes) 0
attr interpolationmode none
attr source rxPkOk
attr title "packets received OK, sum(packetBytes)"
scalar ClientServer.client[13].eth[0].mac txPk:count 0
attr interpolationmode none
attr source txPk
attr title "packets transmitted, count"
scalar ClientServer.client[13].eth[0].mac txPk:sum(packetBytes) 0
attr interpolationmode none
attr source txPk
attr title "packets transmitted, sum(packetBytes)"
scalar ClientServer.client[13].eth[0].mac passedUpPk:count 0
attr interpolationmode none
attr source packetSentToUpper
attr title "packets passed to higher layer, count"
scalar ClientServer.client[13].eth[0].mac passedUpPk:sum(packetBytes) 0
attr interpolationmode none
attr source packetSentToUpper
attr title "packets passed to higher layer, sum(packetBytes)"
scalar ClientServer.client[13].eth[0].encap pauseSent:count 0
attr title "pause sent, count"
scalar ClientServer.client[13].eth[0].encap pauseSent:sum 0
attr title "pause sent, sum"
scalar ClientServer.client[13].eth[0].encap decapPk:count 0
attr interpolationmode none
attr source decapPk
attr title "packets decapsulated, count"
scalar ClientServer.client[13].eth[0].encap decapPk:sum(packetBytes) 0
attr interpolationmode none
attr source decapPk
attr title "packets decapsulated, sum(packetBytes)"
scalar ClientServer.client[13].eth[0].encap encapPk:count 0
attr interpolationmode none
attr source encapPk
attr title "packets encapsulated, count"
scalar ClientServer.client[13].eth[0].encap encapPk:sum(packetBytes) 0
attr interpolationmode none
attr source encapPk
attr title "packets encapsulated, sum(packetBytes)"
scalar ClientServer.client[14].lo0.lo droppedPkBitError:count 0
attr interpolationmode none
attr source dropPkBitError
attr title "packets dropped/bit error, count"
scalar ClientServer.client[14].lo0.lo droppedPkBitError:sum(packetBytes) 0
attr interpolationmode none
attr source dropPkBitError
attr title "packets dropped/bit error, sum(packetBytes)"
scalar ClientServer.client[14].lo0.lo rcvdPkFromHL:count 0
attr interpolationmode none
attr source packetReceivedFromUpper
attr title "packets received from higher layer, count"
scalar ClientServer.client[14].lo0.lo rcvdPkFromHL:sum(packetBytes) 0
attr interpolationmode none
attr source packetReceivedFromUpper
attr title "packets received from higher layer, sum(packetBytes)"
scalar ClientServer.client[14].lo0.lo passedUpPk:count 0
attr interpolationmode none
attr source packetSentToUpper
attr title "packets passed to higher layer, count"
scalar ClientServer.client[14].lo0.lo passedUpPk:sum(packetBytes) 0
attr interpolationmode none
attr source packetSentToUpper
attr title "packets passed to higher layer, sum(packetBytes)"
scalar ClientServer.client[14].eth[0].mac "simulated time" 0.142105233227
scalar ClientServer.client[14].eth[0].mac full-duplex 1
scalar ClientServer.client[14].eth[0].mac "frames/sec sent" 0
scalar ClientServer.client[14].eth[0].mac "frames/sec rcvd" 0
scalar ClientServer.client[14].eth[0].mac "bits/sec sent" 0
scalar ClientServer.client[14].eth[0].mac "bits/sec rcvd" 0
scalar ClientServer.client[14].eth[0].mac "rx channel idle (%)" 100
scalar ClientServer.client[14].eth[0].mac "rx channel utilization (%)" 0
scalar ClientServer.client[14].eth[0].mac droppedPkNotForUs:count 0
attr interpolationmode none
attr source dropPkNotForUs
attr title "packets dropped/not for us, count"
scalar ClientServer.client[14].eth[0].mac droppedPkNotForUs:sum(packetBytes) 0
attr interpolationmode none
attr source dropPkNotForUs
attr title "packets dropped/not for us, sum(packetBytes)"
scalar ClientServer.client[14].eth[0].mac droppedPkIfaceDown:count 0
attr interpolationmode none
attr source dropPkIfaceDown
attr title "packets dropped/interface down, count"
scalar ClientServer.client[14].eth[0].mac droppedPkIfaceDown:sum(packetBytes) 0
attr interpolationmode none
attr source dropPkIfaceDown
attr title "packets dropped/interface down, sum(packetBytes)"
scalar ClientServer.client[14].eth[0].mac droppedPkBitError:count 0
attr interpolationmode none
attr source dropPkBitError
attr title "packets dropped/bit error, count"
scalar ClientServer.client[14].eth[0].mac droppedPkBitError:sum(packetBytes) 0
attr interpolationmode none
attr source dropPkBitError
attr title "packets dropped/bit error, sum(packetBytes)"
scalar ClientServer.client[14].eth[0].mac rxPkFromHL:count 0
attr interpolationmode none
attr source rxPkFromHL
attr title "packet bytes from higher layer, count"
scalar ClientServer.client[14].eth[0].mac rxPkFromHL:sum(packetBytes) 0
attr interpolationmode none
attr source rxPkFromHL
attr title "packet bytes from higher layer, sum(packetBytes)"
scalar ClientServer.client[14].eth[0].mac rxPausePkUnits:count 0
attr interpolationmode none
attr title "pause units received, count"
scalar ClientServer.client[14].eth[0].mac rxPausePkUnits:sum 0
attr interpolationmode none
attr title "pause units received, sum"
scalar ClientServer.client[14].eth[0].mac txPausePkUnits:count 0
attr interpolationmode none
attr title "pause units sent, count"
scalar ClientServer.client[14].eth[0].mac txPausePkUnits:sum 0
attr interpolationmode none
attr title "pause units sent, sum"
scalar ClientServer.client[14].eth[0].mac rxPkOk:count 0
attr interpolationmode none
attr source rxPkOk
attr title "packets received OK, count"
scalar ClientServer.client[14].eth[0].mac rxPkOk:sum(packetBytes) 0
attr interpolationmode none
attr source rxPkOk
attr title "packets received OK, sum(packetBytes)"
scalar ClientServer.client[14].eth[0].mac txPk:count 0
attr interpolationmode none
attr source txPk
attr title "packets transmitted, count"
scalar ClientServer.client[14].eth[0].mac txPk:sum(packetBytes) 0
attr interpolationmode none
attr source txPk
attr title "packets transmitted, sum(packetBytes)"
scalar ClientServer.client[14].eth[0].mac passedUpPk:count 0
attr interpolationmode none
attr source packetSentToUpper
attr title "packets passed to higher layer, count"
scalar ClientServer.client[14].eth[0].mac passedUpPk:sum(packetBytes) 0
attr interpolationmode none
attr source packetSentToUpper
[...]
bin	-0.3	0
bin	-0.26666666666667	0
bin	-0.23333333333333	0
bin	-0.2	0
bin	-0.16666666666667	0
bin	-0.13333333333333	0
bin	-0.1	0
bin	-0.066666666666667	0
bin	-0.033333333333333	0
bin	-6.9388939039072e-18	0
bin	0.033333333333333	0
bin	0.066666666666667	0
bin	0.1	0
bin	0.13333333333333	0
bin	0.16666666666667	0
bin	0.2	0
bin	0.23333333333333	0
bin	0.26666666666667	0
bin	0.3	0
bin	0.33333333333333	0
bin	0.36666666666667	0
bin	0.4	0
bin	0.43333333333333	0
bin	0.46666666666667	0
bin	0.5	0
statistic ClientServer.wifiClient[7].wlan[0].radio bitErrorRate:histogram
field count 0
field mean -nan
field stddev -nan
field min -nan
field max -nan
field sum 0
field sqrsum 0
attr source bitErrorRate
attr title "Bit error rate, histogram"
bin	-inf	0
bin	-0.5	0
bin	-0.46666666666667	0
bin	-0.43333333333333	0
bin	-0.4	0
bin	-0.36666666666667	0
bin	-0.33333333333333	0
bin	-0.3	0
bin	-0.26666666666667	0
bin	-0.23333333333333	0
bin	-0.2	0
bin	-0.16666666666667	0
bin	-0.13333333333333	0
bin	-0.1	0
bin	-0.066666666666667	0
bin	-0.033333333333333	0
bin	-6.9388939039072e-18	0
bin	0.033333333333333	0
bin	0.066666666666667	0
bin	0.1	0
bin	0.13333333333333	0
bin	0.16666666666667	0
bin	0.2	0
bin	0.23333333333333	0
bin	0.26666666666667	0
bin	0.3	0
bin	0.33333333333333	0
bin	0.36666666666667	0
bin	0.4	0
bin	0.43333333333333	0
bin	0.46666666666667	0
bin	0.5	0
statistic ClientServer.wifiClient[7].wlan[0].radio packetErrorRate:histogram
field count 1
field mean 0
field stddev -nan
field min 0
field max 0
field sum 0
field sqrsum 0
attr source packetErrorRate
attr title "Packet error rate, histogram"
bin	-inf	0
bin	-0.5	0
bin	-0.46666666666667	0
bin	-0.43333333333333	0
bin	-0.4	0
bin	-0.36666666666667	0
bin	-0.33333333333333	0
bin	-0.3	0
bin	-0.26666666666667	0
bin	-0.23333333333333	0
bin	-0.2	0
bin	-0.16666666666667	0
bin	-0.13333333333333	0
bin	-0.1	0
bin	-0.066666666666667	0
bin	-0.033333333333333	0
bin	-6.9388939039072e-18	1
bin	0.033333333333333	0
bin	0.066666666666667	0
bin	0.1	0
bin	0.13333333333333	0
bin	0.16666666666667	0
bin	0.2	0
bin	0.23333333333333	0
bin	0.26666666666667	0
bin	0.3	0
bin	0.33333333333333	0
bin	0.36666666666667	0
bin	0.4	0
bin	0.43333333333333	0
bin	0.46666666666667	0
bin	0.5	0
statistic ClientServer.wifiClient[7].wlan[0].radio minSNIR:histogram
field count 1
field mean 1210.7534357078
field stddev -nan
field min 1210.7534357078
field max 1210.7534357078
field sum 1210.7534357078
field sqrsum 1465923.8820783
attr source minSNIR
attr title "Min SNIR, histogram"
bin	-inf	0
bin	1210.2534357078	0
bin	1210.2867690412	0
bin	1210.3201023745	0
bin	1210.3534357078	0
bin	1210.3867690412	0
bin	1210.4201023745	0
bin	1210.4534357078	0
bin	1210.4867690412	0
bin	1210.5201023745	0
bin	1210.5534357078	0
bin	1210.5867690412	0
bin	1210.6201023745	0
bin	1210.6534357078	0
bin	1210.6867690412	0
bin	1210.7201023745	0
bin	1210.7534357078	1
bin	1210.7867690412	0
bin	1210.8201023745	0
bin	1210.8534357078	0
bin	1210.8867690412	0
bin	1210.9201023745	0
bin	1210.9534357078	0
bin	1210.9867690412	0
bin	1211.0201023745	0
bin	1211.0534357078	0
bin	1211.0867690412	0
bin	1211.1201023745	0
bin	1211.1534357078	0
bin	1211.1867690412	0
bin	1211.2201023745	0
bin	1211.2534357078	0
scalar ClientServer.wifiClient[8].lo0.lo droppedPkBitError:count 0
attr interpolationmode none
attr source dropPkBitError
attr title "packets dropped/bit error, count"
scalar ClientServer.wifiClient[8].lo0.lo droppedPkBitError:sum(packetBytes) 0
attr interpolationmode none
attr source dropPkBitError
attr title "packets dropped/bit error, sum(packetBytes)"
scalar ClientServer.wifiClient[8].lo0.lo rcvdPkFromHL:count 0
attr interpolationmode none
attr source packetReceivedFromUpper
attr title "packets received from higher layer, count"
scalar ClientServer.wifiClient[8].lo0.lo rcvdPkFromHL:sum(packetBytes) 0
attr interpolationmode none
attr source packetReceivedFromUpper
attr title "packets received from higher layer, sum(packetBytes)"
scalar ClientServer.wifiClient[8].lo0.lo passedUpPk:count 0
attr interpolationmode none
attr source packetSentToUpper
attr title "packets passed to higher layer, count"
scalar ClientServer.wifiClient[8].lo0.lo passedUpPk:sum(packetBytes) 0
attr interpolationmode none
attr source packetSentToUpper
attr title "packets passed to higher layer, sum(packetBytes)"
scalar ClientServer.wifiClient[8].wlan[0].agent dropConfirm:count 0
attr title "dropped confirms, count"
scalar ClientServer.wifiClient[8].wlan[0].agent acceptConfirm:count 0
attr title "accepted confirms, count"
scalar ClientServer.wifiClient[8].wlan[0].agent sentRequest:count 0
attr title "sent requests, count"
scalar ClientServer.wifiClient[8].wlan[0].mac rcvdPkFromLL:count 1
attr interpolationmode none
attr source packetReceivedFromLower
attr title "packets received from lower layer, count"
scalar ClientServer.wifiClient[8].wlan[0].mac rcvdPkFromLL:sum(packetBytes) 53
attr interpolationmode none
attr source packetReceivedFromLower
attr title "packets received from lower layer, sum(packetBytes)"
scalar ClientServer.wifiClient[8].wlan[0].mac sentDownPk:count 0
attr interpolationmode none
attr source packetSentToLower
attr title "packets sent to lower layer, count"
scalar ClientServer.wifiClient[8].wlan[0].mac sentDownPk:sum(packetBytes) 0
attr interpolationmode none
attr source packetSentToLower
attr title "packets sent to lower layer, sum(packetBytes)"
scalar ClientServer.wifiClient[8].wlan[0].mac rcvdPkFromHL:count 0
attr interpolationmode none
attr source packetReceivedFromUpper
attr title "packets received from higher layer, count"
scalar ClientServer.wifiClient[8].wlan[0].mac rcvdPkFromHL:sum(packetBytes) 0
attr interpolationmode none
attr source packetReceivedFromUpper
attr title "packets received from higher layer, sum(packetBytes)"
scalar ClientServer.wifiClient[8].wlan[0].mac passedUpPk:count 1
attr interpolationmode none
attr source packetSentToUpper
attr title "packets passed to higher layer, count"
scalar ClientServer.wifiClient[8].wlan[0].mac passedUpPk:sum(packetBytes) 53
attr interpolationmode none
attr source packetSentToUpper
attr title "packets passed to higher layer, sum(packetBytes)"
statistic ClientServer.wifiClient[8].wlan[0].radio radioChannel:histogram
field count 1
field mean 0
field stddev -nan
field min 0
field max 0
field sum 0
field sqrsum 0
attr interpolationmode sample-hold
attr source radioChannelChanged
attr title "Radio channel, histogram"
bin	-inf	0
bin	-0.5	0
bin	-0.46666666666667	0
bin	-0.43333333333333	0
bin	-0.4	0
bin	-0.36666666666667	0
bin	-0.33333333333333	0
bin	-0.3	0
bin	-0.26666666666667	0
bin	-0.23333333333333	0
bin	-0.2	0
bin	-0.16666666666667	0
bin	-0.13333333333333	0
bin	-0.1	0
bin	-0.066666666666667	0
bin	-0.033333333333333	0
bin	-6.9388939039072e-18	1
bin	0.033333333333333	0
bin	0.066666666666667	0
bin	0.1	0
bin	0.13333333333333	0
bin	0.16666666666667	0
bin	0.2	0
bin	0.23333333333333	0
bin	0.26666666666667	0
bin	0.3	0
bin	0.33333333333333	0
bin	0.36666666666667	0
bin	0.4	0
bin	0.43333333333333	0
bin	0.46666666666667	0
bin	0.5	0
scalar ClientServer.wifiClient[8].wlan[0].radio transmissionState:count 0
attr interpolationmode sample-hold
attr source transmissionStateChanged
attr title "Radio transmission state, count"
scalar ClientServer.wifiClient[8].wlan[0].radio receptionState:count 3
attr interpolationmode sample-hold
attr source receptionStateChanged
attr title "Radio reception state, count"
scalar ClientServer.wifiClient[8].wlan[0].radio radioMode:count 2
attr interpolationmode sample-hold
attr source radioModeChanged
attr title "Radio mode, count"
statistic ClientServer.wifiClient[8].wlan[0].radio symbolErrorRate:histogram
field count 0
field mean -nan
field stddev -nan
field min -nan
field max -nan
field sum 0
field sqrsum 0
attr source symbolErrorRate
attr title "Symbol error rate, histogram"
bin	-inf	0
bin	-0.5	0
bin	-0.46666666666667	0
bin	-0.43333333333333	0
bin	-0.4	0
bin	-0.36666666666667	0
bin	-0.33333333333333	0
bin	-0.3	0
bin	-0.26666666666667	0
bin	-0.23333333333333	0
bin	-0.2	0
bin	-0.16666666666667	0
bin	-0.13333333333333	0
bin	-0.1	0
bin	-0.066666666666667	0
bin	-0.033333333333333	0
bin	-6.9388939039072e-18	0
bin	0.033333333333333	0
bin	0.066666666666667	0
bin	0.1	0
bin	0.13333333333333	0
bin	0.16666666666667	0
bin	0.2	0
bin	0.23333333333333	0
bin	0.26666666666667	0
bin	0.3	0
bin	0.33333333333333	0
bin	0.36666666666667	0
bin	0.4	0
bin	0.43333333333333	0
bin	0.46666666666667	0
bin	0.5	0
statistic ClientServer.wifiClient[8].wlan[0].radio bitErrorRate:histogram
field count 0
field mean -nan
field stddev -nan
field min -nan
field max -nan
field sum 0
field sqrsum 0
attr source bitErrorRate
attr title "Bit error rate, histogram"
bin	-inf	0
bin	-0.5	0
bin	-0.46666666666667	0
bin	-0.43333333333333	0
bin	-0.4	0
bin	-0.36666666666667	0
bin	-0.33333333333333	0
bin	-0.3	0
bin	-0.26666666666667	0
bin	-0.23333333333333	0
bin	-0.2	0
bin	-0.16666666666667	0
bin	-0.13333333333333	0
bin	-0.1	0
bin	-0.066666666666667	0
bin	-0.033333333333333	0
bin	-6.9388939039072e-18	0
bin	0.033333333333333	0
bin	0.066666666666667	0
bin	0.1	0
bin	0.13333333333333	0
bin	0.16666666666667	0
bin	0.2	0
bin	0.23333333333333	0
bin	0.26666666666667	0
bin	0.3	0
bin	0.33333333333333	0
bin	0.36666666666667	0
bin	0.4	0
bin	0.43333333333333	0
bin	0.46666666666667	0
bin	0.5	0
statistic ClientServer.wifiClient[8].wlan[0].radio packetErrorRate:histogram
field count 1
field mean 0
field stddev -nan
field min 0
field max 0
field sum 0
field sqrsum 0
attr source packetErrorRate
attr title "Packet error rate, histogram"
bin	-inf	0
bin	-0.5	0
bin	-0.46666666666667	0
bin	-0.43333333333333	0
bin	-0.4	0
bin	-0.36666666666667	0
bin	-0.33333333333333	0
bin	-0.3	0
bin	-0.26666666666667	0
bin	-0.23333333333333	0
bin	-0.2	0
bin	-0.16666666666667	0
bin	-0.13333333333333	0
bin	-0.1	0
bin	-0.066666666666667	0
bin	-0.033333333333333	0
bin	-6.9388939039072e-18	1
bin	0.033333333333333	0
bin	0.066666666666667	0
bin	0.1	0
bin	0.13333333333333	0
bin	0.16666666666667	0
bin	0.2	0
bin	0.23333333333333	0
bin	0.26666666666667	0
bin	0.3	0
bin	0.33333333333333	0
bin	0.36666666666667	0
bin	0.4	0
bin	0.43333333333333	0
bin	0.46666666666667	0
bin	0.5	0
statistic ClientServer.wifiClient[8].wlan[0].radio minSNIR:histogram
field count 1
field mean 1210.7534357078
field stddev -nan
field min 1210.7534357078
field max 1210.7534357078
field sum 1210.7534357078
field sqrsum 1465923.8820783
attr source minSNIR
attr title "Min SNIR, histogram"
bin	-inf	0
bin	1210.2534357078	0
bin	1210.2867690412	0
bin	1210.3201023745	0
bin	1210.3534357078	0
bin	1210.3867690412	0
bin	1210.4201023745	0
bin	1210.4534357078	0
bin	1210.4867690412	0
bin	1210.5201023745	0
bin	1210.5534357078	0
bin	1210.5867690412	0
bin	1210.6201023745	0
bin	1210.6534357078	0
bin	1210.6867690412	0
bin	1210.7201023745	0
bin	1210.7534357078	1
bin	1210.7867690412	0
bin	1210.8201023745	0
bin	1210.8534357078	0
bin	1210.8867690412	0
bin	1210.9201023745	0
bin	1210.9534357078	0
bin	1210.9867690412	0
bin	1211.0201023745	0
bin	1211.0534357078	0
bin	1211.0867690412	0
bin	1211.1201023745	0
bin	1211.1534357078	0
bin	1211.1867690412	0
bin	1211.2201023745	0
bin	1211.2534357078	0
scalar ClientServer.wifiClient[9].lo0.lo droppedPkBitError:count 0
attr interpolationmode none
attr source dropPkBitError
attr title "packets dropped/bit error, count"
scalar ClientServer.wifiClient[9].lo0.lo droppedPkBitError:sum(packetBytes) 0
attr interpolationmode none
attr source dropPkBitError
attr title "packets dropped/bit error, sum(packetBytes)"
scalar ClientServer.wifiClient[9].lo0.lo rcvdPkFromHL:count 0
attr interpolationmode none
attr source packetReceivedFromUpper
attr title "packets received from higher layer, count"
scalar ClientServer.wifiClient[9].lo0.lo rcvdPkFromHL:sum(packetBytes) 0
attr interpolationmode none
attr source packetReceivedFromUpper
attr title "packets received from higher layer, sum(packetBytes)"
scalar ClientServer.wifiClient[9].lo0.lo passedUpPk:count 0
attr interpolationmode none
attr source packetSentToUpper
attr title "packets passed to higher layer, count"
scalar ClientServer.wifiClient[9].lo0.lo passedUpPk:sum(packetBytes) 0
attr interpolationmode none
attr source packetSentToUpper
attr title "packets passed to higher layer, sum(packetBytes)"
scalar ClientServer.wifiClient[9].wlan[0].agent dropConfirm:count 0
attr title "dropped confirms, count"
scalar ClientServer.wifiClient[9].wlan[0].agent acceptConfirm:count 0
attr title "accepted confirms, count"
scalar ClientServer.wifiClient[9].wlan[0].agent sentRequest:count 0
attr title "sent requests, count"
scalar ClientServer.wifiClient[9].wlan[0].mac rcvdPkFromLL:count 1
attr interpolationmode none
attr source packetReceivedFromLower
attr title "packets received from lower layer, count"
scalar ClientServer.wifiClient[9].wlan[0].mac rcvdPkFromLL:sum(packetBytes) 53
attr interpolationmode none
attr source packetReceivedFromLower
attr title "packets received from lower layer, sum(packetBytes)"
scalar ClientServer.wifiClient[9].wlan[0].mac sentDownPk:count 0
attr interpolationmode none
attr source packetSentToLower
attr title "packets sent to lower layer, count"
scalar ClientServer.wifiClient[9].wlan[0].mac sentDownPk:sum(packetBytes) 0
attr interpolationmode none
attr source packetSentToLower
attr title "packets sent to lower layer, sum(packetBytes)"
scalar ClientServer.wifiClient[9].wlan[0].mac rcvdPkFromHL:count 0
attr interpolationmode none
attr source packetReceivedFromUpper
attr title "packets received from higher layer, count"
scalar ClientServer.wifiClient[9].wlan[0].mac rcvdPkFromHL:sum(packetBytes) 0
attr interpolationmode none
attr source packetReceivedFromUpper
attr title "packets received from higher layer, sum(packetBytes)"
scalar ClientServer.wifiClient[9].wlan[0].mac passedUpPk:count 1
attr interpolationmode none
attr source packetSentToUpper
attr title "packets passed to higher layer, count"
scalar ClientServer.wifiClient[9].wlan[0].mac passedUpPk:sum(packetBytes) 53
attr interpolationmode none
attr source packetSentToUpper
attr title "packets passed to higher layer, sum(packetBytes)"
statistic ClientServer.wifiClient[9].wlan[0].radio radioChannel:histogram
field count 1
field mean 0
field stddev -nan
field min 0
field max 0
field sum 0
field sqrsum 0
attr interpolationmode sample-hold
attr source radioChannelChanged
attr title "Radio channel, histogram"
bin	-inf	0
bin	-0.5	0
bin	-0.46666666666667	0
bin	-0.43333333333333	0
bin	-0.4	0
bin	-0.36666666666667	0
bin	-0.33333333333333	0
bin	-0.3	0
bin	-0.26666666666667	0
bin	-0.23333333333333	0
bin	-0.2	0
bin	-0.16666666666667	0
bin	-0.13333333333333	0
bin	-0.1	0
bin	-0.066666666666667	0
bin	-0.033333333333333	0
bin	-6.9388939039072e-18	1
bin	0.033333333333333	0
bin	0.066666666666667	0
bin	0.1	0
bin	0.13333333333333	0
bin	0.16666666666667	0
bin	0.2	0
bin	0.23333333333333	0
bin	0.26666666666667	0
bin	0.3	0
bin	0.33333333333333	0
bin	0.36666666666667	0
bin	0.4	0
bin	0.43333333333333	0
bin	0.46666666666667	0
bin	0.5	0
scalar ClientServer.wifiClient[9].wlan[0].radio transmissionState:count 0
attr interpolationmode sample-hold
attr source transmissionStateChanged
attr title "Radio transmission state, count"
scalar ClientServer.wifiClient[9].wlan[0].radio receptionState:count 3
attr interpolationmode sample-hold
attr source receptionStateChanged
attr title "Radio reception state, count"
scalar ClientServer.wifiClient[9].wlan[0].radio radioMode:count 2
attr interpolationmode sample-hold
attr source radioModeChanged
attr title "Radio mode, count"
statistic ClientServer.wifiClient[9].wlan[0].radio symbolErrorRate:histogram
field count 0
field mean -nan
field stddev -nan
field min -nan
field max -nan
field sum 0
field sqrsum 0
attr source symbolErrorRate
attr title "Symbol error rate, histogram"
bin	-inf	0
bin	-0.5	0
bin	-0.46666666666667	0
bin	-0.43333333333333	0
bin	-0.4	0
bin	-0.36666666666667	0
bin	-0.33333333333333	0
bin	-0.3	0
bin	-0.26666666666667	0
bin	-0.23333333333333	0
bin	-0.2	0
bin	-0.16666666666667	0
bin	-0.13333333333333	0
bin	-0.1	0
bin	-0.066666666666667	0
bin	-0.033333333333333	0
bin	-6.9388939039072e-18	0
bin	0.033333333333333	0
bin	0.066666666666667	0
bin	0.1	0
bin	0.13333333333333	0
bin	0.16666666666667	0
bin	0.2	0
bin	0.23333333333333	0
bin	0.26666666666667	0
bin	0.3	0
bin	0.33333333333333	0
bin	0.36666666666667	0
bin	0.4	0
bin	0.43333333333333	0
bin	0.46666666666667	0
bin	0.5	0
statistic ClientServer.wifiClient[9].wlan[0].radio bitErrorRate:histogram
field count 0
field mean -nan
field stddev -nan
field min -nan
field max -nan
field sum 0
field sqrsum 0
attr source bitErrorRate
attr title "Bit error rate, histogram"
bin	-inf	0
bin	-0.5	0
bin	-0.46666666666667	0
bin	-0.43333333333333	0
bin	-0.4	0
bin	-0.36666666666667	0
bin	-0.33333333333333	0
bin	-0.3	0
bin	-0.26666666666667	0
bin	-0.23333333333333	0
bin	-0.2	0
bin	-0.16666666666667	0
bin	-0.13333333333333	0
bin	-0.1	0
bin	-0.066666666666667	0
bin	-0.033333333333333	0
bin	-6.9388939039072e-18	0
bin	0.033333333333333	0
bin	0.066666666666667	0
bin	0.1	0
bin	0.13333333333333	0
bin	0.16666666666667	0
bin	0.2	0
bin	0.23333333333333	0
bin	0.26666666666667	0
bin	0.3	0
bin	0.33333333333333	0
bin	0.36666666666667	0
bin	0.4	0
bin	0.43333333333333	0
bin	0.46666666666667	0
bin	0.5	0
statistic ClientServer.wifiClient[9].wlan[0].radio packetErrorRate:histogram
field count 1
field mean 0
field stddev -nan
field min 0
field max 0
field sum 0
field sqrsum 0
attr source packetErrorRate
attr title "Packet error rate, histogram"
bin	-inf	0
bin	-0.5	0
bin	-0.46666666666667	0
bin	-0.43333333333333	0
bin	-0.4	0
bin	-0.36666666666667	0
bin	-0.33333333333333	0
bin	-0.3	0
bin	-0.26666666666667	0
bin	-0.23333333333333	0
bin	-0.2	0
bin	-0.16666666666667	0
bin	-0.13333333333333	0
bin	-0.1	0
bin	-0.066666666666667	0
bin	-0.033333333333333	0
bin	-6.9388939039072e-18	1
bin	0.033333333333333	0
bin	0.066666666666667	0
bin	0.1	0
bin	0.13333333333333	0
bin	0.16666666666667	0
bin	0.2	0
bin	0.23333333333333	0
bin	0.26666666666667	0
bin	0.3	0
bin	0.33333333333333	0
bin	0.36666666666667	0
bin	0.4	0
bin	0.43333333333333	0
bin	0.46666666666667	0
bin	0.5	0
statistic ClientServer.wifiClient[9].wlan[0].radio minSNIR:histogram
field count 1
field mean 1210.7534357078
field stddev -nan
field min 1210.7534357078
field max 1210.7534357078
field sum 1210.7534357078
field sqrsum 1465923.8820783
attr source minSNIR
attr title "Min SNIR, histogram"
bin	-inf	0
bin	1210.2534357078	0
bin	1210.2867690412	0
bin	1210.3201023745	0
bin	1210.3534357078	0
bin	1210.3867690412	0
bin	1210.4201023745	0
bin	1210.4534357078	0
bin	1210.4867690412	0
bin	1210.5201023745	0
bin	1210.5534357078	0
bin	1210.5867690412	0
bin	1210.6201023745	0
bin	1210.6534357078	0
bin	1210.6867690412	0
bin	1210.7201023745	0
bin	1210.7534357078	1
bin	1210.7867690412	0
bin	1210.8201023745	0
bin	1210.8534357078	0
bin	1210.8867690412	0
bin	1210.9201023745	0
bin	1210.9534357078	0
bin	1210.9867690412	0
bin	1211.0201023745	0
bin	1211.0534357078	0
bin	1211.0867690412	0
bin	1211.1201023745	0
bin	1211.1534357078	0
bin	1211.1867690412	0
bin	1211.2201023745	0
bin	1211.2534357078	0
scalar ClientServer.radioMedium.propagation "Arrival computation count" 20
scalar ClientServer.radioMedium "transmission count" 2
scalar ClientServer.radioMedium "radio frame send count" 20
scalar ClientServer.radioMedium "reception computation count" 17
scalar ClientServer.radioMedium "interference computation count" 49
scalar ClientServer.radioMedium "reception decision computation count" 10
scalar ClientServer.radioMedium "listening decision computation count" 22
scalar ClientServer.radioMedium "reception cache hit" 81.318681318681
attr unit %
scalar ClientServer.radioMedium "interference cache hit" 66.666666666667
attr unit %
scalar ClientServer.radioMedium "noise cache hit" 0
attr unit %
scalar ClientServer.radioMedium "snir cache hit" 50
attr unit %
scalar ClientServer.radioMedium "reception decision cache hit" 50
attr unit %
scalar ClientServer.radioMedium "reception result cache hit" 0
attr unit %

